Exec   : icoThermalFoam
Date   : Sep 01 2020
Time   : 20:56:35
Host   : ce71b9e98572
PID    : 7181
I/O    : uncollated
Case   : /home/foam/openfoam-temperature-regulation/04-pipeBndCond
nProcs : 1
trapFpe: Floating point exception trapping enabled (FOAM_SIGFPE).
fileModificationChecking : Monitoring run-time modified files using timeStampMaster (fileModificationSkew 10)
allowSystemOperations : Allowing user-supplied system call operations

// * * * * * * * * * * * * * * * * * * * * * * * * * * * * * * * * * * * * * //
--
smoothSolver:  Solving for Uy, Initial residual = 3.92294e-22, Final residual = 3.92294e-22, No Iterations 0
smoothSolver:  Solving for Uz, Initial residual = 0.000227905, Final residual = 4.77745e-06, No Iterations 2
DICPCG:  Solving for p, Initial residual = 1, Final residual = 0.0463113, No Iterations 97
time step continuity errors : sum local = 8.58879e-05, global = -1.24922e-06, cumulative = -1.24922e-06
DICPCG:  Solving for p, Initial residual = 0.0068156, Final residual = 5.4902e-07, No Iterations 100
time step continuity errors : sum local = 1.75781e-07, global = 8.2126e-10, cumulative = -1.24839e-06
Measured temperature: 300
Wall temperature: 350
Output signal: -300.05
DILUPBiCG:  Solving for T, Initial residual = 1, Final residual = 1.61461e-07, No Iterations 7
ExecutionTime = 0.01 s  ClockTime = 0 s

Time = 0.2

--
smoothSolver:  Solving for Uy, Initial residual = 0.128775, Final residual = 9.38736e-06, No Iterations 9
smoothSolver:  Solving for Uz, Initial residual = 0.34289, Final residual = 4.17428e-06, No Iterations 9
DICPCG:  Solving for p, Initial residual = 0.0128303, Final residual = 0.000511632, No Iterations 95
time step continuity errors : sum local = 6.32692e-05, global = 1.13701e-06, cumulative = -1.11382e-07
DICPCG:  Solving for p, Initial residual = 0.0251713, Final residual = 3.13419e-07, No Iterations 101
time step continuity errors : sum local = 1.56594e-08, global = 3.067e-11, cumulative = -1.11351e-07
Measured temperature: 275.031
Wall temperature: 49.95
Output signal: -100.31
DILUPBiCG:  Solving for T, Initial residual = 0.245723, Final residual = 1.82578e-07, No Iterations 6
ExecutionTime = 0.02 s  ClockTime = 0 s

Time = 0.3

--
smoothSolver:  Solving for Uy, Initial residual = 0.0455402, Final residual = 4.07008e-06, No Iterations 8
smoothSolver:  Solving for Uz, Initial residual = 0.190054, Final residual = 7.96152e-06, No Iterations 8
DICPCG:  Solving for p, Initial residual = 0.0094217, Final residual = 0.000464211, No Iterations 96
time step continuity errors : sum local = 2.74641e-05, global = -6.1074e-07, cumulative = -7.22092e-07
DICPCG:  Solving for p, Initial residual = 0.00651144, Final residual = 4.48821e-07, No Iterations 100
time step continuity errors : sum local = 2.36202e-08, global = 1.39279e-10, cumulative = -7.21952e-07
Measured temperature: 251.462
Wall temperature: -50.3597
Output signal: 16.106
DILUPBiCG:  Solving for T, Initial residual = 0.0634283, Final residual = 5.17311e-08, No Iterations 6
ExecutionTime = 0.02 s  ClockTime = 0 s

Time = 0.4

--
smoothSolver:  Solving for Uy, Initial residual = 0.0237085, Final residual = 5.97537e-06, No Iterations 7
smoothSolver:  Solving for Uz, Initial residual = 0.114511, Final residual = 6.03163e-06, No Iterations 8
DICPCG:  Solving for p, Initial residual = 0.00520988, Final residual = 0.000103894, No Iterations 97
time step continuity errors : sum local = 5.86002e-06, global = -7.55462e-08, cumulative = -7.97499e-07
DICPCG:  Solving for p, Initial residual = 0.00419991, Final residual = 2.67073e-07, No Iterations 100
time step continuity errors : sum local = 1.13993e-08, global = 3.22858e-11, cumulative = -7.97466e-07
Measured temperature: 237.923
Wall temperature: -34.2536
Output signal: 73.7806
DILUPBiCG:  Solving for T, Initial residual = 0.118275, Final residual = 6.05756e-08, No Iterations 6
ExecutionTime = 0.03 s  ClockTime = 0 s

Time = 0.5

--
smoothSolver:  Solving for Uy, Initial residual = 0.0151903, Final residual = 3.97613e-06, No Iterations 7
smoothSolver:  Solving for Uz, Initial residual = 0.100149, Final residual = 6.99066e-06, No Iterations 8
DICPCG:  Solving for p, Initial residual = 0.00348679, Final residual = 4.85068e-05, No Iterations 97
time step continuity errors : sum local = 2.47399e-06, global = -3.33692e-08, cumulative = -8.30835e-07
DICPCG:  Solving for p, Initial residual = 0.00250539, Final residual = 3.81573e-07, No Iterations 99
time step continuity errors : sum local = 1.69799e-08, global = 1.05255e-10, cumulative = -8.3073e-07
Measured temperature: 234.384
Wall temperature: 39.5269
Output signal: 81.5057
DILUPBiCG:  Solving for T, Initial residual = 0.147985, Final residual = 6.54784e-08, No Iterations 6
ExecutionTime = 0.03 s  ClockTime = 0 s

Time = 0.6

--
smoothSolver:  Solving for Uy, Initial residual = 0.0108332, Final residual = 7.5971e-06, No Iterations 6
smoothSolver:  Solving for Uz, Initial residual = 0.092196, Final residual = 6.17442e-06, No Iterations 8
DICPCG:  Solving for p, Initial residual = 0.00249541, Final residual = 4.897e-05, No Iterations 96
time step continuity errors : sum local = 2.37096e-06, global = -4.56242e-08, cumulative = -8.76354e-07
DICPCG:  Solving for p, Initial residual = 0.00185088, Final residual = 4.37281e-07, No Iterations 98
time step continuity errors : sum local = 1.91548e-08, global = -6.88226e-11, cumulative = -8.76423e-07
Measured temperature: 237.216
Wall temperature: 121.033
Output signal: 61.004
DILUPBiCG:  Solving for T, Initial residual = 0.164744, Final residual = 1.11608e-07, No Iterations 6
ExecutionTime = 0.04 s  ClockTime = 0 s

Time = 0.7

--
smoothSolver:  Solving for Uy, Initial residual = 0.00868698, Final residual = 5.41185e-06, No Iterations 6
smoothSolver:  Solving for Uz, Initial residual = 0.0816511, Final residual = 5.50107e-06, No Iterations 8
DICPCG:  Solving for p, Initial residual = 0.00176442, Final residual = 8.03414e-05, No Iterations 94
time step continuity errors : sum local = 3.74141e-06, global = -5.72232e-08, cumulative = -9.33646e-07
DICPCG:  Solving for p, Initial residual = 0.00136499, Final residual = 5.74004e-07, No Iterations 97
time step continuity errors : sum local = 2.4907e-08, global = -1.08997e-11, cumulative = -9.33657e-07
Measured temperature: 242.382
Wall temperature: 182.037
Output signal: 32.8593
DILUPBiCG:  Solving for T, Initial residual = 0.155817, Final residual = 1.64153e-07, No Iterations 6
ExecutionTime = 0.04 s  ClockTime = 0 s

Time = 0.8

--
smoothSolver:  Solving for Uy, Initial residual = 0.00683879, Final residual = 3.85753e-06, No Iterations 6
smoothSolver:  Solving for Uz, Initial residual = 0.079717, Final residual = 5.20766e-06, No Iterations 8
DICPCG:  Solving for p, Initial residual = 0.00127942, Final residual = 5.92653e-05, No Iterations 95
time step continuity errors : sum local = 2.68415e-06, global = 5.61283e-08, cumulative = -8.77529e-07
DICPCG:  Solving for p, Initial residual = 0.00101237, Final residual = 8.27364e-07, No Iterations 97
time step continuity errors : sum local = 3.55492e-08, global = -1.15505e-10, cumulative = -8.77645e-07
Measured temperature: 247.064
Wall temperature: 214.896
Output signal: 9.94548
DILUPBiCG:  Solving for T, Initial residual = 0.110624, Final residual = 9.15479e-07, No Iterations 5
ExecutionTime = 0.05 s  ClockTime = 0 s

Time = 0.9

--
smoothSolver:  Solving for Uy, Initial residual = 0.00518792, Final residual = 7.59762e-06, No Iterations 5
smoothSolver:  Solving for Uz, Initial residual = 0.0803841, Final residual = 5.45272e-06, No Iterations 8
DICPCG:  Solving for p, Initial residual = 0.00095107, Final residual = 3.48402e-05, No Iterations 95
time step continuity errors : sum local = 1.5454e-06, global = 2.77317e-08, cumulative = -8.49913e-07
DICPCG:  Solving for p, Initial residual = 0.000729251, Final residual = 5.70103e-07, No Iterations 96
time step continuity errors : sum local = 2.43076e-08, global = -1.5961e-10, cumulative = -8.50073e-07
Measured temperature: 250.009
Wall temperature: 224.841
Output signal: -3.04033
DILUPBiCG:  Solving for T, Initial residual = 0.0549374, Final residual = 6.19428e-07, No Iterations 5
ExecutionTime = 0.05 s  ClockTime = 0 s

Time = 1

--
smoothSolver:  Solving for Uy, Initial residual = 0.00387479, Final residual = 5.60554e-06, No Iterations 5
smoothSolver:  Solving for Uz, Initial residual = 0.0750137, Final residual = 5.74208e-06, No Iterations 8
DICPCG:  Solving for p, Initial residual = 0.000707289, Final residual = 2.13497e-05, No Iterations 95
time step continuity errors : sum local = 9.32244e-07, global = 1.24354e-08, cumulative = -8.37637e-07
DICPCG:  Solving for p, Initial residual = 0.000536234, Final residual = 3.9798e-07, No Iterations 97
time step continuity errors : sum local = 1.68607e-08, global = 1.1818e-10, cumulative = -8.37519e-07
Measured temperature: 251.166
Wall temperature: 221.801
Output signal: -7.03852
DILUPBiCG:  Solving for T, Initial residual = 0.0604643, Final residual = 5.73653e-07, No Iterations 5
ExecutionTime = 0.07 s  ClockTime = 0 s

Time = 1.1

--
smoothSolver:  Solving for Uy, Initial residual = 0.00288858, Final residual = 4.25079e-06, No Iterations 5
smoothSolver:  Solving for Uz, Initial residual = 0.0718929, Final residual = 6.06226e-06, No Iterations 8
DICPCG:  Solving for p, Initial residual = 0.000524941, Final residual = 1.06464e-05, No Iterations 94
time step continuity errors : sum local = 4.59312e-07, global = 3.29488e-09, cumulative = -8.34224e-07
DICPCG:  Solving for p, Initial residual = 0.000392811, Final residual = 9.5727e-07, No Iterations 96
time step continuity errors : sum local = 4.03484e-08, global = -9.07942e-11, cumulative = -8.34315e-07
Measured temperature: 251.097
Wall temperature: 214.763
Output signal: -5.46932
DILUPBiCG:  Solving for T, Initial residual = 0.0472784, Final residual = 3.24813e-07, No Iterations 5
ExecutionTime = 0.08 s  ClockTime = 0 s

Time = 1.2

--
smoothSolver:  Solving for Uy, Initial residual = 0.00221164, Final residual = 8.87123e-06, No Iterations 4
smoothSolver:  Solving for Uz, Initial residual = 0.0776853, Final residual = 5.08097e-06, No Iterations 8
DICPCG:  Solving for p, Initial residual = 0.000393785, Final residual = 1.50134e-05, No Iterations 87
time step continuity errors : sum local = 6.41723e-07, global = 6.28333e-08, cumulative = -7.71482e-07
DICPCG:  Solving for p, Initial residual = 0.00029457, Final residual = 4.21514e-07, No Iterations 96
time step continuity errors : sum local = 1.76942e-08, global = -1.39316e-10, cumulative = -7.71621e-07
Measured temperature: 250.48
Wall temperature: 209.293
Output signal: -1.8409
DILUPBiCG:  Solving for T, Initial residual = 0.0270028, Final residual = 8.34225e-08, No Iterations 5
ExecutionTime = 0.08 s  ClockTime = 0 s

Time = 1.3

--
smoothSolver:  Solving for Uy, Initial residual = 0.00172598, Final residual = 6.98239e-06, No Iterations 4
smoothSolver:  Solving for Uz, Initial residual = 0.0687091, Final residual = 5.0221e-06, No Iterations 8
DICPCG:  Solving for p, Initial residual = 0.000302769, Final residual = 5.92775e-06, No Iterations 93
time step continuity errors : sum local = 2.51531e-07, global = 5.63479e-09, cumulative = -7.65986e-07
DICPCG:  Solving for p, Initial residual = 0.000219544, Final residual = 4.80077e-07, No Iterations 96
time step continuity errors : sum local = 2.00896e-08, global = -6.54219e-11, cumulative = -7.66052e-07
Measured temperature: 249.827
Wall temperature: 207.452
Output signal: 1.46071
DILUPBiCG:  Solving for T, Initial residual = 0.0175966, Final residual = 8.41744e-07, No Iterations 4
ExecutionTime = 0.09 s  ClockTime = 0 s

Time = 1.4

--
smoothSolver:  Solving for Uy, Initial residual = 0.00135515, Final residual = 5.48459e-06, No Iterations 4
smoothSolver:  Solving for Uz, Initial residual = 0.0718385, Final residual = 5.6453e-06, No Iterations 8
DICPCG:  Solving for p, Initial residual = 0.000227525, Final residual = 8.98217e-06, No Iterations 91
time step continuity errors : sum local = 3.79002e-07, global = -5.41969e-09, cumulative = -7.71471e-07
DICPCG:  Solving for p, Initial residual = 0.000169898, Final residual = 6.81396e-07, No Iterations 96
time step continuity errors : sum local = 2.84393e-08, global = -1.48944e-10, cumulative = -7.7162e-07
Measured temperature: 249.396
Wall temperature: 208.913
Output signal: 3.39396
DILUPBiCG:  Solving for T, Initial residual = 0.0261204, Final residual = 1.13485e-07, No Iterations 5
ExecutionTime = 0.1 s  ClockTime = 0 s

Time = 1.5

--
smoothSolver:  Solving for Uy, Initial residual = 0.00106684, Final residual = 4.36836e-06, No Iterations 4
smoothSolver:  Solving for Uz, Initial residual = 0.0736174, Final residual = 4.56799e-06, No Iterations 8
DICPCG:  Solving for p, Initial residual = 0.000179767, Final residual = 7.86723e-06, No Iterations 93
time step continuity errors : sum local = 3.30492e-07, global = 2.94489e-09, cumulative = -7.68675e-07
DICPCG:  Solving for p, Initial residual = 0.000133349, Final residual = 5.16846e-07, No Iterations 96
time step continuity errors : sum local = 2.15272e-08, global = 6.686e-11, cumulative = -7.68608e-07
Measured temperature: 249.237
Wall temperature: 212.307
Output signal: 3.92229
DILUPBiCG:  Solving for T, Initial residual = 0.0317957, Final residual = 1.65164e-07, No Iterations 5
ExecutionTime = 0.1 s  ClockTime = 0 s

Time = 1.6

--
smoothSolver:  Solving for Uy, Initial residual = 0.000844624, Final residual = 3.45738e-06, No Iterations 4
smoothSolver:  Solving for Uz, Initial residual = 0.0725019, Final residual = 5.29667e-06, No Iterations 8
DICPCG:  Solving for p, Initial residual = 0.000142065, Final residual = 5.40512e-06, No Iterations 94
time step continuity errors : sum local = 2.26275e-07, global = -8.65534e-10, cumulative = -7.69474e-07
DICPCG:  Solving for p, Initial residual = 0.000105401, Final residual = 4.64391e-07, No Iterations 96
time step continuity errors : sum local = 1.9309e-08, global = -3.93283e-11, cumulative = -7.69513e-07
Measured temperature: 249.279
Wall temperature: 216.229
Output signal: 3.51209
DILUPBiCG:  Solving for T, Initial residual = 0.0333264, Final residual = 1.7309e-07, No Iterations 5
ExecutionTime = 0.11 s  ClockTime = 0 s

Time = 1.7

--
smoothSolver:  Solving for Uy, Initial residual = 0.000666937, Final residual = 8.4672e-06, No Iterations 3
smoothSolver:  Solving for Uz, Initial residual = 0.0742161, Final residual = 4.84204e-06, No Iterations 8
DICPCG:  Solving for p, Initial residual = 0.000110755, Final residual = 5.51784e-06, No Iterations 94
time step continuity errors : sum local = 2.30358e-07, global = -2.45001e-10, cumulative = -7.69758e-07
DICPCG:  Solving for p, Initial residual = 8.16455e-05, Final residual = 3.46632e-07, No Iterations 96
time step continuity errors : sum local = 1.43957e-08, global = -1.32915e-11, cumulative = -7.69772e-07
Measured temperature: 249.418
Wall temperature: 219.741
Output signal: 2.71775
DILUPBiCG:  Solving for T, Initial residual = 0.0316814, Final residual = 1.53648e-07, No Iterations 5
ExecutionTime = 0.11 s  ClockTime = 0 s

Time = 1.8

--
smoothSolver:  Solving for Uy, Initial residual = 0.000528591, Final residual = 6.70888e-06, No Iterations 3
smoothSolver:  Solving for Uz, Initial residual = 0.0742716, Final residual = 5.01257e-06, No Iterations 8
DICPCG:  Solving for p, Initial residual = 8.68427e-05, Final residual = 4.05541e-06, No Iterations 94
time step continuity errors : sum local = 1.68944e-07, global = -5.64693e-10, cumulative = -7.70336e-07
DICPCG:  Solving for p, Initial residual = 6.38498e-05, Final residual = 2.80018e-07, No Iterations 96
time step continuity errors : sum local = 1.16173e-08, global = -2.90631e-11, cumulative = -7.70365e-07
Measured temperature: 249.57
Wall temperature: 222.459
Output signal: 1.9495
DILUPBiCG:  Solving for T, Initial residual = 0.0285311, Final residual = 1.26165e-07, No Iterations 5
ExecutionTime = 0.12 s  ClockTime = 0 s

Time = 1.9

--
smoothSolver:  Solving for Uy, Initial residual = 0.000418394, Final residual = 5.29102e-06, No Iterations 3
smoothSolver:  Solving for Uz, Initial residual = 0.0732233, Final residual = 5.283e-06, No Iterations 8
DICPCG:  Solving for p, Initial residual = 6.75771e-05, Final residual = 2.84489e-06, No Iterations 94
time step continuity errors : sum local = 1.18315e-07, global = -5.13948e-10, cumulative = -7.70879e-07
DICPCG:  Solving for p, Initial residual = 4.98184e-05, Final residual = 9.5928e-07, No Iterations 95
time step continuity errors : sum local = 3.97664e-08, global = -1.39664e-10, cumulative = -7.71019e-07
Measured temperature: 249.686
Wall temperature: 224.409
Output signal: 1.40709
DILUPBiCG:  Solving for T, Initial residual = 0.025297, Final residual = 9.93724e-08, No Iterations 5
ExecutionTime = 0.12 s  ClockTime = 0 s

Time = 2

--
smoothSolver:  Solving for Uy, Initial residual = 0.000331383, Final residual = 4.17001e-06, No Iterations 3
smoothSolver:  Solving for Uz, Initial residual = 0.0706766, Final residual = 4.33436e-06, No Iterations 8
DICPCG:  Solving for p, Initial residual = 5.28009e-05, Final residual = 2.08296e-06, No Iterations 94
time step continuity errors : sum local = 8.65126e-08, global = 8.34607e-11, cumulative = -7.70935e-07
DICPCG:  Solving for p, Initial residual = 3.88633e-05, Final residual = 7.34347e-07, No Iterations 95
time step continuity errors : sum local = 3.04225e-08, global = -2.33743e-12, cumulative = -7.70938e-07
Measured temperature: 249.753
Wall temperature: 225.816
Output signal: 1.11858
DILUPBiCG:  Solving for T, Initial residual = 0.0228191, Final residual = 7.9767e-08, No Iterations 5
ExecutionTime = 0.13 s  ClockTime = 0 s

Time = 2.1

--
smoothSolver:  Solving for Uy, Initial residual = 0.000262859, Final residual = 3.3118e-06, No Iterations 3
smoothSolver:  Solving for Uz, Initial residual = 0.0790036, Final residual = 5.10897e-06, No Iterations 8
DICPCG:  Solving for p, Initial residual = 4.14996e-05, Final residual = 1.81851e-06, No Iterations 94
time step continuity errors : sum local = 7.54496e-08, global = 3.7463e-10, cumulative = -7.70563e-07
DICPCG:  Solving for p, Initial residual = 3.05774e-05, Final residual = 5.57146e-07, No Iterations 95
time step continuity errors : sum local = 2.30698e-08, global = 5.77832e-12, cumulative = -7.70557e-07
Measured temperature: 249.781
Wall temperature: 226.934
Output signal: 1.01731
DILUPBiCG:  Solving for T, Initial residual = 0.021306, Final residual = 6.96444e-08, No Iterations 5
ExecutionTime = 0.14 s  ClockTime = 0 s

Time = 2.2

--
smoothSolver:  Solving for Uy, Initial residual = 0.000208888, Final residual = 8.84735e-06, No Iterations 2
smoothSolver:  Solving for Uz, Initial residual = 0.0760757, Final residual = 5.80447e-06, No Iterations 8
DICPCG:  Solving for p, Initial residual = 3.56342e-05, Final residual = 1.30033e-06, No Iterations 94
time step continuity errors : sum local = 5.39061e-08, global = 2.83362e-10, cumulative = -7.70274e-07
DICPCG:  Solving for p, Initial residual = 2.58139e-05, Final residual = 4.12043e-07, No Iterations 93
time step continuity errors : sum local = 1.70435e-08, global = -3.86773e-10, cumulative = -7.70661e-07
Measured temperature: 249.787
Wall temperature: 227.952
Output signal: 1.01152
DILUPBiCG:  Solving for T, Initial residual = 0.0205549, Final residual = 6.73279e-08, No Iterations 5
ExecutionTime = 0.15 s  ClockTime = 0 s

Time = 2.3

--
smoothSolver:  Solving for Uy, Initial residual = 0.000167734, Final residual = 7.28713e-06, No Iterations 2
smoothSolver:  Solving for Uz, Initial residual = 0.0736417, Final residual = 4.98319e-06, No Iterations 8
DICPCG:  Solving for p, Initial residual = 2.94347e-05, Final residual = 1.40568e-06, No Iterations 94
time step continuity errors : sum local = 5.82357e-08, global = 1.33766e-10, cumulative = -7.70527e-07
DICPCG:  Solving for p, Initial residual = 2.14475e-05, Final residual = 4.85368e-07, No Iterations 95
time step continuity errors : sum local = 2.0073e-08, global = 3.67202e-11, cumulative = -7.7049e-07
Measured temperature: 249.785
Wall temperature: 228.963
Output signal: 1.02748
DILUPBiCG:  Solving for T, Initial residual = 0.0202202, Final residual = 6.89131e-08, No Iterations 5
ExecutionTime = 0.15 s  ClockTime = 0 s

Time = 2.4

--
smoothSolver:  Solving for Uy, Initial residual = 0.000135847, Final residual = 5.98319e-06, No Iterations 2
smoothSolver:  Solving for Uz, Initial residual = 0.0659494, Final residual = 5.09311e-06, No Iterations 8
DICPCG:  Solving for p, Initial residual = 2.40554e-05, Final residual = 3.75594e-07, No Iterations 95
time step continuity errors : sum local = 1.55524e-08, global = -7.11406e-11, cumulative = -7.70561e-07
DICPCG:  Solving for p, Initial residual = 1.72544e-05, Final residual = 3.77877e-07, No Iterations 95
time step continuity errors : sum local = 1.56253e-08, global = 4.19188e-11, cumulative = -7.7052e-07
Measured temperature: 249.786
Wall temperature: 229.991
Output signal: 1.02421
DILUPBiCG:  Solving for T, Initial residual = 0.0199941, Final residual = 7.07364e-08, No Iterations 5
ExecutionTime = 0.16 s  ClockTime = 0 s

Time = 2.5

--
smoothSolver:  Solving for Uy, Initial residual = 0.000108082, Final residual = 4.74302e-06, No Iterations 2
smoothSolver:  Solving for Uz, Initial residual = 0.0719248, Final residual = 4.67755e-06, No Iterations 8
DICPCG:  Solving for p, Initial residual = 1.88253e-05, Final residual = 3.49998e-07, No Iterations 95
time step continuity errors : sum local = 1.44867e-08, global = -6.09561e-11, cumulative = -7.70581e-07
DICPCG:  Solving for p, Initial residual = 1.33339e-05, Final residual = 3.37051e-07, No Iterations 95
time step continuity errors : sum local = 1.39356e-08, global = -1.79032e-12, cumulative = -7.70582e-07
Measured temperature: 249.791
Wall temperature: 231.015
Output signal: 0.990462
DILUPBiCG:  Solving for T, Initial residual = 0.0196894, Final residual = 7.07687e-08, No Iterations 5
ExecutionTime = 0.16 s  ClockTime = 0 s

Time = 2.6

--
smoothSolver:  Solving for Uy, Initial residual = 8.59906e-05, Final residual = 3.77168e-06, No Iterations 2
smoothSolver:  Solving for Uz, Initial residual = 0.0737163, Final residual = 5.30049e-06, No Iterations 8
DICPCG:  Solving for p, Initial residual = 1.48657e-05, Final residual = 2.70382e-07, No Iterations 95
time step continuity errors : sum local = 1.11878e-08, global = -8.9861e-12, cumulative = -7.70591e-07
DICPCG:  Solving for p, Initial residual = 1.05254e-05, Final residual = 2.66562e-07, No Iterations 95
time step continuity errors : sum local = 1.10202e-08, global = 3.32285e-11, cumulative = -7.70558e-07
Measured temperature: 249.802
Wall temperature: 232.005
Output signal: 0.933135
DILUPBiCG:  Solving for T, Initial residual = 0.0192478, Final residual = 6.87471e-08, No Iterations 5
ExecutionTime = 0.17 s  ClockTime = 0 s

Time = 2.7

--
smoothSolver:  Solving for Uy, Initial residual = 6.82302e-05, Final residual = 2.97987e-06, No Iterations 2
smoothSolver:  Solving for Uz, Initial residual = 0.0753258, Final residual = 4.30907e-06, No Iterations 8
DICPCG:  Solving for p, Initial residual = 1.28584e-05, Final residual = 4.9393e-07, No Iterations 95
time step continuity errors : sum local = 2.04325e-08, global = 2.43511e-11, cumulative = -7.70534e-07
DICPCG:  Solving for p, Initial residual = 1.11456e-05, Final residual = 9.42152e-07, No Iterations 89
time step continuity errors : sum local = 3.89666e-08, global = 7.25993e-11, cumulative = -7.70461e-07
Measured temperature: 249.815
Wall temperature: 232.938
Output signal: 0.865359
DILUPBiCG:  Solving for T, Initial residual = 0.0186946, Final residual = 6.5298e-08, No Iterations 5
ExecutionTime = 0.18 s  ClockTime = 0 s

Time = 2.8

--
smoothSolver:  Solving for Uy, Initial residual = 5.73277e-05, Final residual = 2.80946e-06, No Iterations 2
smoothSolver:  Solving for Uz, Initial residual = 0.0743643, Final residual = 4.973e-06, No Iterations 8
DICPCG:  Solving for p, Initial residual = 1.20354e-05, Final residual = 9.44604e-07, No Iterations 58
time step continuity errors : sum local = 3.90661e-08, global = -1.29771e-09, cumulative = -7.71759e-07
DICPCG:  Solving for p, Initial residual = 1.05704e-05, Final residual = 9.92594e-07, No Iterations 83
time step continuity errors : sum local = 4.10507e-08, global = 1.9603e-09, cumulative = -7.69799e-07
Measured temperature: 249.828
Wall temperature: 233.804
Output signal: 0.798497
DILUPBiCG:  Solving for T, Initial residual = 0.0180876, Final residual = 6.13173e-08, No Iterations 5
ExecutionTime = 0.18 s  ClockTime = 0 s

Time = 2.9

--
smoothSolver:  Solving for Uy, Initial residual = 4.72806e-05, Final residual = 8.58447e-06, No Iterations 1
smoothSolver:  Solving for Uz, Initial residual = 0.0726061, Final residual = 5.13193e-06, No Iterations 8
DICPCG:  Solving for p, Initial residual = 1.12768e-05, Final residual = 9.65346e-07, No Iterations 59
time step continuity errors : sum local = 3.99188e-08, global = 3.91377e-09, cumulative = -7.65885e-07
DICPCG:  Solving for p, Initial residual = 9.43199e-06, Final residual = 8.25037e-07, No Iterations 93
time step continuity errors : sum local = 3.41164e-08, global = 1.46193e-10, cumulative = -7.65739e-07
Measured temperature: 249.841
Wall temperature: 234.602
Output signal: 0.73953
DILUPBiCG:  Solving for T, Initial residual = 0.0174844, Final residual = 5.73347e-08, No Iterations 5
ExecutionTime = 0.19 s  ClockTime = 0 s

Time = 3

--
smoothSolver:  Solving for Uy, Initial residual = 3.78337e-05, Final residual = 6.95782e-06, No Iterations 1
smoothSolver:  Solving for Uz, Initial residual = 0.0728288, Final residual = 4.75245e-06, No Iterations 8
DICPCG:  Solving for p, Initial residual = 8.44415e-06, Final residual = 7.67186e-07, No Iterations 58
time step continuity errors : sum local = 3.17204e-08, global = -7.32264e-09, cumulative = -7.73061e-07
DICPCG:  Solving for p, Initial residual = 7.0735e-06, Final residual = 8.2118e-07, No Iterations 93
time step continuity errors : sum local = 3.39529e-08, global = 4.49768e-10, cumulative = -7.72611e-07
Measured temperature: 249.851
Wall temperature: 235.342
Output signal: 0.690489
DILUPBiCG:  Solving for T, Initial residual = 0.0169107, Final residual = 5.38701e-08, No Iterations 5
ExecutionTime = 0.19 s  ClockTime = 0 s

Time = 3.1

--
smoothSolver:  Solving for Uy, Initial residual = 3.03128e-05, Final residual = 5.45827e-06, No Iterations 1
smoothSolver:  Solving for Uz, Initial residual = 0.0651748, Final residual = 4.52963e-06, No Iterations 8
DICPCG:  Solving for p, Initial residual = 1.05665e-05, Final residual = 2.89984e-07, No Iterations 95
time step continuity errors : sum local = 1.19891e-08, global = -1.04225e-12, cumulative = -7.72612e-07
DICPCG:  Solving for p, Initial residual = 9.13773e-06, Final residual = 8.41122e-07, No Iterations 94
time step continuity errors : sum local = 3.47443e-08, global = 2.43993e-10, cumulative = -7.72368e-07
Measured temperature: 249.859
Wall temperature: 236.032
Output signal: 0.649935
DILUPBiCG:  Solving for T, Initial residual = 0.0163725, Final residual = 5.08715e-08, No Iterations 5
ExecutionTime = 0.2 s  ClockTime = 0 s

Time = 3.2

--
smoothSolver:  Solving for Uy, Initial residual = 2.52369e-05, Final residual = 4.81604e-06, No Iterations 1
smoothSolver:  Solving for Uz, Initial residual = 0.0733271, Final residual = 4.41598e-06, No Iterations 8
DICPCG:  Solving for p, Initial residual = 1.0411e-05, Final residual = 8.31014e-07, No Iterations 94
time step continuity errors : sum local = 3.43552e-08, global = 8.17764e-11, cumulative = -7.72287e-07
DICPCG:  Solving for p, Initial residual = 8.97722e-06, Final residual = 9.04155e-07, No Iterations 94
time step continuity errors : sum local = 3.73518e-08, global = 2.47763e-10, cumulative = -7.72039e-07
Measured temperature: 249.867
Wall temperature: 236.682
Output signal: 0.615434
DILUPBiCG:  Solving for T, Initial residual = 0.0158738, Final residual = 4.83102e-08, No Iterations 5
ExecutionTime = 0.2 s  ClockTime = 0 s

Time = 3.3

--
smoothSolver:  Solving for Uy, Initial residual = 2.18647e-05, Final residual = 4.38158e-06, No Iterations 1
smoothSolver:  Solving for Uz, Initial residual = 0.0744029, Final residual = 5.21706e-06, No Iterations 8
DICPCG:  Solving for p, Initial residual = 9.25202e-06, Final residual = 7.19063e-07, No Iterations 91
time step continuity errors : sum local = 2.97251e-08, global = 8.95287e-10, cumulative = -7.71144e-07
DICPCG:  Solving for p, Initial residual = 7.82187e-06, Final residual = 5.71923e-07, No Iterations 91
time step continuity errors : sum local = 2.36291e-08, global = -4.33358e-10, cumulative = -7.71577e-07
Measured temperature: 249.873
Wall temperature: 237.298
Output signal: 0.584382
DILUPBiCG:  Solving for T, Initial residual = 0.0154051, Final residual = 4.61618e-08, No Iterations 5
ExecutionTime = 0.21 s  ClockTime = 0 s

Time = 3.4

--
smoothSolver:  Solving for Uy, Initial residual = 1.77547e-05, Final residual = 3.55164e-06, No Iterations 1
smoothSolver:  Solving for Uz, Initial residual = 0.0824498, Final residual = 6.11432e-06, No Iterations 8
DICPCG:  Solving for p, Initial residual = 8.67152e-06, Final residual = 4.94672e-07, No Iterations 95
time step continuity errors : sum local = 2.0448e-08, global = -2.64007e-11, cumulative = -7.71603e-07
DICPCG:  Solving for p, Initial residual = 7.28141e-06, Final residual = 8.25224e-07, No Iterations 64
time step continuity errors : sum local = 3.41061e-08, global = 1.17657e-09, cumulative = -7.70427e-07
Measured temperature: 249.879
Wall temperature: 237.882
Output signal: 0.555273
DILUPBiCG:  Solving for T, Initial residual = 0.0149556, Final residual = 4.41858e-08, No Iterations 5
ExecutionTime = 0.21 s  ClockTime = 0 s

Time = 3.5

--
smoothSolver:  Solving for Uy, Initial residual = 1.67594e-05, Final residual = 3.50102e-06, No Iterations 1
smoothSolver:  Solving for Uz, Initial residual = 0.069096, Final residual = 5.0859e-06, No Iterations 8
DICPCG:  Solving for p, Initial residual = 7.14754e-06, Final residual = 9.61344e-07, No Iterations 79
time step continuity errors : sum local = 3.97341e-08, global = 1.28042e-10, cumulative = -7.70299e-07
DICPCG:  Solving for p, Initial residual = 6.68054e-06, Final residual = 9.25032e-07, No Iterations 84
time step continuity errors : sum local = 3.82311e-08, global = -1.07675e-10, cumulative = -7.70406e-07
Measured temperature: 249.885
Wall temperature: 238.437
Output signal: 0.527425
DILUPBiCG:  Solving for T, Initial residual = 0.0145177, Final residual = 4.22926e-08, No Iterations 5
ExecutionTime = 0.22 s  ClockTime = 0 s

Time = 3.6

--
smoothSolver:  Solving for Uy, Initial residual = 1.43944e-05, Final residual = 3.18161e-06, No Iterations 1
smoothSolver:  Solving for Uz, Initial residual = 0.0704884, Final residual = 4.46028e-06, No Iterations 8
DICPCG:  Solving for p, Initial residual = 6.5682e-06, Final residual = 9.63455e-07, No Iterations 78
time step continuity errors : sum local = 3.98211e-08, global = -1.08083e-09, cumulative = -7.71487e-07
DICPCG:  Solving for p, Initial residual = 6.37661e-06, Final residual = 9.68868e-07, No Iterations 67
time step continuity errors : sum local = 4.00429e-08, global = 3.34375e-09, cumulative = -7.68144e-07
Measured temperature: 249.89
Wall temperature: 238.965
Output signal: 0.500946
DILUPBiCG:  Solving for T, Initial residual = 0.0140909, Final residual = 4.04683e-08, No Iterations 5
ExecutionTime = 0.22 s  ClockTime = 0 s

Time = 3.7

--
smoothSolver:  Solving for Uy, Initial residual = 1.29879e-05, Final residual = 2.91112e-06, No Iterations 1
smoothSolver:  Solving for Uz, Initial residual = 0.078866, Final residual = 5.186e-06, No Iterations 8
DICPCG:  Solving for p, Initial residual = 6.0421e-06, Final residual = 6.9341e-07, No Iterations 86
time step continuity errors : sum local = 2.86594e-08, global = -5.15862e-10, cumulative = -7.68659e-07
DICPCG:  Solving for p, Initial residual = 5.40804e-06, Final residual = 7.93059e-07, No Iterations 89
time step continuity errors : sum local = 3.27769e-08, global = -6.80075e-10, cumulative = -7.69339e-07
Measured temperature: 249.895
Wall temperature: 239.466
Output signal: 0.475923
DILUPBiCG:  Solving for T, Initial residual = 0.013675, Final residual = 3.87758e-08, No Iterations 5
ExecutionTime = 0.23 s  ClockTime = 0 s

Time = 3.8

--
smoothSolver:  Solving for Uy, Initial residual = 1.13117e-05, Final residual = 2.56719e-06, No Iterations 1
smoothSolver:  Solving for Uz, Initial residual = 0.0670104, Final residual = 4.72925e-06, No Iterations 8
DICPCG:  Solving for p, Initial residual = 5.00407e-06, Final residual = 9.05722e-07, No Iterations 81
time step continuity errors : sum local = 3.74345e-08, global = 1.58288e-09, cumulative = -7.67757e-07
DICPCG:  Solving for p, Initial residual = 4.76848e-06, Final residual = 8.36279e-07, No Iterations 85
time step continuity errors : sum local = 3.4563e-08, global = 9.22985e-10, cumulative = -7.66834e-07
Measured temperature: 249.9
Wall temperature: 239.942
Output signal: 0.452383
DILUPBiCG:  Solving for T, Initial residual = 0.0132717, Final residual = 3.7168e-08, No Iterations 5
ExecutionTime = 0.23 s  ClockTime = 0 s

Time = 3.9

--
smoothSolver:  Solving for Uy, Initial residual = 9.86216e-06, Final residual = 9.86216e-06, No Iterations 0
smoothSolver:  Solving for Uz, Initial residual = 0.0713025, Final residual = 5.81555e-06, No Iterations 8
DICPCG:  Solving for p, Initial residual = 2.34719e-06, Final residual = 6.5256e-07, No Iterations 89
time step continuity errors : sum local = 2.69708e-08, global = -6.01276e-10, cumulative = -7.67435e-07
DICPCG:  Solving for p, Initial residual = 1.73165e-06, Final residual = 7.44238e-07, No Iterations 1
time step continuity errors : sum local = 3.0759e-08, global = -6.15962e-09, cumulative = -7.73595e-07
Measured temperature: 249.904
Wall temperature: 240.394
Output signal: 0.430277
DILUPBiCG:  Solving for T, Initial residual = 0.0128804, Final residual = 3.55907e-08, No Iterations 5
ExecutionTime = 0.23 s  ClockTime = 0 s

Time = 4

--
smoothSolver:  Solving for Uy, Initial residual = 8.73043e-06, Final residual = 8.73043e-06, No Iterations 0
smoothSolver:  Solving for Uz, Initial residual = 0.07314, Final residual = 5.02535e-06, No Iterations 8
DICPCG:  Solving for p, Initial residual = 1.79999e-06, Final residual = 9.4957e-07, No Iterations 62
time step continuity errors : sum local = 3.92452e-08, global = -4.44907e-10, cumulative = -7.74039e-07
DICPCG:  Solving for p, Initial residual = 1.84398e-06, Final residual = 7.49677e-07, No Iterations 1
time step continuity errors : sum local = 3.09845e-08, global = 2.27587e-10, cumulative = -7.73812e-07
Measured temperature: 249.909
Wall temperature: 240.824
Output signal: 0.409641
DILUPBiCG:  Solving for T, Initial residual = 0.0125027, Final residual = 3.41381e-08, No Iterations 5
ExecutionTime = 0.24 s  ClockTime = 0 s

Time = 4.1

--
smoothSolver:  Solving for Uy, Initial residual = 8.24129e-06, Final residual = 8.24129e-06, No Iterations 0
smoothSolver:  Solving for Uz, Initial residual = 0.0711342, Final residual = 5.60767e-06, No Iterations 8
DICPCG:  Solving for p, Initial residual = 1.76313e-06, Final residual = 7.86986e-07, No Iterations 41
time step continuity errors : sum local = 3.25264e-08, global = 5.22076e-09, cumulative = -7.68591e-07
DICPCG:  Solving for p, Initial residual = 1.80455e-06, Final residual = 8.84094e-07, No Iterations 1
time step continuity errors : sum local = 3.65399e-08, global = 5.97322e-09, cumulative = -7.62618e-07
Measured temperature: 249.913
Wall temperature: 241.234
Output signal: 0.390114
DILUPBiCG:  Solving for T, Initial residual = 0.0121364, Final residual = 3.2727e-08, No Iterations 5
ExecutionTime = 0.24 s  ClockTime = 0 s

Time = 4.2

--
smoothSolver:  Solving for Uy, Initial residual = 7.1927e-06, Final residual = 7.1927e-06, No Iterations 0
smoothSolver:  Solving for Uz, Initial residual = 0.0715235, Final residual = 5.37591e-06, No Iterations 8
DICPCG:  Solving for p, Initial residual = 1.7498e-06, Final residual = 8.735e-07, No Iterations 80
time step continuity errors : sum local = 3.6102e-08, global = -5.15495e-10, cumulative = -7.63133e-07
DICPCG:  Solving for p, Initial residual = 1.67898e-06, Final residual = 7.65738e-07, No Iterations 1
time step continuity errors : sum local = 3.16474e-08, global = -7.65661e-09, cumulative = -7.7079e-07
Measured temperature: 249.916
Wall temperature: 241.624
Output signal: 0.371536
DILUPBiCG:  Solving for T, Initial residual = 0.0117806, Final residual = 3.13888e-08, No Iterations 5
ExecutionTime = 0.24 s  ClockTime = 0 s

Time = 4.3

--
smoothSolver:  Solving for Uy, Initial residual = 6.59997e-06, Final residual = 6.59997e-06, No Iterations 0
smoothSolver:  Solving for Uz, Initial residual = 0.0783259, Final residual = 5.64413e-06, No Iterations 8
DICPCG:  Solving for p, Initial residual = 1.66568e-06, Final residual = 9.73305e-07, No Iterations 49
time step continuity errors : sum local = 4.0226e-08, global = -7.38904e-09, cumulative = -7.78179e-07
DICPCG:  Solving for p, Initial residual = 1.83598e-06, Final residual = 9.61919e-07, No Iterations 1
time step continuity errors : sum local = 3.97556e-08, global = -1.01928e-08, cumulative = -7.88372e-07
Measured temperature: 249.92
Wall temperature: 241.996
Output signal: 0.353547
DILUPBiCG:  Solving for T, Initial residual = 0.011418, Final residual = 3.00618e-08, No Iterations 5
ExecutionTime = 0.25 s  ClockTime = 0 s

Time = 4.4

--
smoothSolver:  Solving for Uy, Initial residual = 5.95625e-06, Final residual = 5.95625e-06, No Iterations 0
smoothSolver:  Solving for Uz, Initial residual = 0.072145, Final residual = 5.90232e-06, No Iterations 8
DICPCG:  Solving for p, Initial residual = 1.75549e-06, Final residual = 9.07104e-07, No Iterations 85
time step continuity errors : sum local = 3.74901e-08, global = 2.23026e-09, cumulative = -7.86142e-07
DICPCG:  Solving for p, Initial residual = 1.76693e-06, Final residual = 9.81003e-07, No Iterations 1
time step continuity errors : sum local = 4.05455e-08, global = 8.31691e-09, cumulative = -7.77825e-07
Measured temperature: 249.924
Wall temperature: 242.349
Output signal: 0.336159
DILUPBiCG:  Solving for T, Initial residual = 0.0110526, Final residual = 2.87591e-08, No Iterations 5
ExecutionTime = 0.25 s  ClockTime = 0 s

Time = 4.5

--
smoothSolver:  Solving for Uy, Initial residual = 5.5206e-06, Final residual = 5.5206e-06, No Iterations 0
smoothSolver:  Solving for Uz, Initial residual = 0.0729475, Final residual = 5.01909e-06, No Iterations 8
DICPCG:  Solving for p, Initial residual = 1.83666e-06, Final residual = 8.15487e-07, No Iterations 91
time step continuity errors : sum local = 3.37046e-08, global = -2.61809e-11, cumulative = -7.77851e-07
DICPCG:  Solving for p, Initial residual = 1.53907e-06, Final residual = 5.95398e-07, No Iterations 1
time step continuity errors : sum local = 2.46073e-08, global = -6.97333e-09, cumulative = -7.84824e-07
Measured temperature: 249.927
Wall temperature: 242.685
Output signal: 0.318956
DILUPBiCG:  Solving for T, Initial residual = 0.0106925, Final residual = 2.74161e-08, No Iterations 5
ExecutionTime = 0.25 s  ClockTime = 0 s

Time = 4.6

--
smoothSolver:  Solving for Uy, Initial residual = 4.78399e-06, Final residual = 4.78399e-06, No Iterations 0
smoothSolver:  Solving for Uz, Initial residual = 0.0656031, Final residual = 4.29239e-06, No Iterations 8
DICPCG:  Solving for p, Initial residual = 1.53317e-06, Final residual = 9.0977e-07, No Iterations 9
time step continuity errors : sum local = 3.76001e-08, global = -8.30381e-09, cumulative = -7.93128e-07
DICPCG:  Solving for p, Initial residual = 1.52262e-06, Final residual = 9.7142e-07, No Iterations 1
time step continuity errors : sum local = 4.0148e-08, global = -9.91586e-09, cumulative = -8.03044e-07
Measured temperature: 249.931
Wall temperature: 243.004
Output signal: 0.3013
DILUPBiCG:  Solving for T, Initial residual = 0.0103318, Final residual = 2.60508e-08, No Iterations 5
ExecutionTime = 0.26 s  ClockTime = 0 s

Time = 4.7

--
smoothSolver:  Solving for Uy, Initial residual = 4.20419e-06, Final residual = 4.20419e-06, No Iterations 0
smoothSolver:  Solving for Uz, Initial residual = 0.0744977, Final residual = 5.37014e-06, No Iterations 8
DICPCG:  Solving for p, Initial residual = 1.6322e-06, Final residual = 9.78209e-07, No Iterations 84
time step continuity errors : sum local = 4.04286e-08, global = -4.50847e-10, cumulative = -8.03495e-07
DICPCG:  Solving for p, Initial residual = 1.60267e-06, Final residual = 7.66414e-07, No Iterations 1
time step continuity errors : sum local = 3.16763e-08, global = 5.19813e-09, cumulative = -7.98297e-07
Measured temperature: 249.934
Wall temperature: 243.306
Output signal: 0.28331
DILUPBiCG:  Solving for T, Initial residual = 0.00996936, Final residual = 2.46283e-08, No Iterations 5
ExecutionTime = 0.26 s  ClockTime = 0 s

Time = 4.8

--
smoothSolver:  Solving for Uy, Initial residual = 4.08723e-06, Final residual = 4.08723e-06, No Iterations 0
smoothSolver:  Solving for Uz, Initial residual = 0.0756126, Final residual = 5.70332e-06, No Iterations 8
DICPCG:  Solving for p, Initial residual = 1.56944e-06, Final residual = 9.9071e-07, No Iterations 85
time step continuity errors : sum local = 4.09466e-08, global = -1.1522e-09, cumulative = -7.99449e-07
DICPCG:  Solving for p, Initial residual = 1.62441e-06, Final residual = 8.96292e-07, No Iterations 1
time step continuity errors : sum local = 3.70428e-08, global = -6.14222e-09, cumulative = -8.05591e-07
Measured temperature: 249.938
Wall temperature: 243.589
Output signal: 0.264439
DILUPBiCG:  Solving for T, Initial residual = 0.00960008, Final residual = 2.31218e-08, No Iterations 5
ExecutionTime = 0.27 s  ClockTime = 0 s

Time = 4.9

--
smoothSolver:  Solving for Uy, Initial residual = 3.63769e-06, Final residual = 3.63769e-06, No Iterations 0
smoothSolver:  Solving for Uz, Initial residual = 0.0735219, Final residual = 5.85768e-06, No Iterations 8
DICPCG:  Solving for p, Initial residual = 1.60189e-06, Final residual = 9.19005e-07, No Iterations 41
time step continuity errors : sum local = 3.79815e-08, global = -4.461e-09, cumulative = -8.10052e-07
DICPCG:  Solving for p, Initial residual = 1.5133e-06, Final residual = 9.84703e-07, No Iterations 1
time step continuity errors : sum local = 4.0697e-08, global = -4.73649e-09, cumulative = -8.14788e-07
Measured temperature: 249.942
Wall temperature: 243.853
Output signal: 0.244325
DILUPBiCG:  Solving for T, Initial residual = 0.0092181, Final residual = 2.15089e-08, No Iterations 5
ExecutionTime = 0.27 s  ClockTime = 0 s

Time = 5

--
smoothSolver:  Solving for Uy, Initial residual = 3.3966e-06, Final residual = 3.3966e-06, No Iterations 0
smoothSolver:  Solving for Uz, Initial residual = 0.0646508, Final residual = 4.70569e-06, No Iterations 8
DICPCG:  Solving for p, Initial residual = 1.81612e-06, Final residual = 9.17526e-07, No Iterations 45
time step continuity errors : sum local = 3.79206e-08, global = -8.58294e-09, cumulative = -8.23371e-07
DICPCG:  Solving for p, Initial residual = 1.50068e-06, Final residual = 9.96841e-07, No Iterations 37
time step continuity errors : sum local = 4.11988e-08, global = -4.84896e-09, cumulative = -8.2822e-07
Measured temperature: 249.946
Wall temperature: 244.098
Output signal: 0.222872
DILUPBiCG:  Solving for T, Initial residual = 0.00882033, Final residual = 1.97581e-08, No Iterations 5
ExecutionTime = 0.28 s  ClockTime = 0 s

Time = 5.1

--
smoothSolver:  Solving for Uy, Initial residual = 3.6511e-06, Final residual = 3.6511e-06, No Iterations 0
smoothSolver:  Solving for Uz, Initial residual = 0.0617514, Final residual = 4.34847e-06, No Iterations 8
DICPCG:  Solving for p, Initial residual = 2.16359e-06, Final residual = 8.11092e-07, No Iterations 28
time step continuity errors : sum local = 3.35222e-08, global = -1.65594e-09, cumulative = -8.29876e-07
DICPCG:  Solving for p, Initial residual = 1.29386e-06, Final residual = 8.02499e-07, No Iterations 1
time step continuity errors : sum local = 3.31671e-08, global = 1.12537e-10, cumulative = -8.29764e-07
Measured temperature: 249.951
Wall temperature: 244.32
Output signal: 0.19968
DILUPBiCG:  Solving for T, Initial residual = 0.00839907, Final residual = 1.78343e-08, No Iterations 5
ExecutionTime = 0.28 s  ClockTime = 0 s

Time = 5.2

--
smoothSolver:  Solving for Uy, Initial residual = 2.73327e-06, Final residual = 2.73327e-06, No Iterations 0
smoothSolver:  Solving for Uz, Initial residual = 0.0690076, Final residual = 4.90089e-06, No Iterations 8
DICPCG:  Solving for p, Initial residual = 1.4937e-06, Final residual = 9.85036e-07, No Iterations 20
time step continuity errors : sum local = 4.07112e-08, global = -2.01013e-09, cumulative = -8.31774e-07
DICPCG:  Solving for p, Initial residual = 1.53811e-06, Final residual = 9.46831e-07, No Iterations 1
time step continuity errors : sum local = 3.91322e-08, global = -4.1575e-09, cumulative = -8.35931e-07
Measured temperature: 249.956
Wall temperature: 244.52
Output signal: 0.174698
DILUPBiCG:  Solving for T, Initial residual = 0.00794984, Final residual = 1.57338e-08, No Iterations 5
ExecutionTime = 0.28 s  ClockTime = 0 s

Time = 5.3

--
smoothSolver:  Solving for Uy, Initial residual = 3.3829e-06, Final residual = 3.3829e-06, No Iterations 0
smoothSolver:  Solving for Uz, Initial residual = 0.068685, Final residual = 5.15302e-06, No Iterations 8
DICPCG:  Solving for p, Initial residual = 1.91146e-06, Final residual = 9.37666e-07, No Iterations 20
time step continuity errors : sum local = 3.87534e-08, global = 5.373e-10, cumulative = -8.35394e-07
DICPCG:  Solving for p, Initial residual = 1.49702e-06, Final residual = 8.46555e-07, No Iterations 10
time step continuity errors : sum local = 3.49879e-08, global = 1.32913e-09, cumulative = -8.34065e-07
Measured temperature: 249.961
Wall temperature: 244.695
Output signal: 0.147572
DILUPBiCG:  Solving for T, Initial residual = 0.00747153, Final residual = 1.34791e-08, No Iterations 5
ExecutionTime = 0.29 s  ClockTime = 0 s

Time = 5.4

--
smoothSolver:  Solving for Uy, Initial residual = 3.59338e-06, Final residual = 3.59338e-06, No Iterations 0
smoothSolver:  Solving for Uz, Initial residual = 0.0676098, Final residual = 4.64068e-06, No Iterations 8
DICPCG:  Solving for p, Initial residual = 2.07151e-06, Final residual = 8.48384e-07, No Iterations 5
time step continuity errors : sum local = 3.50635e-08, global = 4.5458e-09, cumulative = -8.29519e-07
DICPCG:  Solving for p, Initial residual = 1.49059e-06, Final residual = 7.98828e-07, No Iterations 1
time step continuity errors : sum local = 3.30153e-08, global = 6.24501e-09, cumulative = -8.23274e-07
Measured temperature: 249.967
Wall temperature: 244.842
Output signal: 0.118517
DILUPBiCG:  Solving for T, Initial residual = 0.00696444, Final residual = 1.10633e-08, No Iterations 5
ExecutionTime = 0.29 s  ClockTime = 0 s

Time = 5.5

--
smoothSolver:  Solving for Uy, Initial residual = 2.45198e-06, Final residual = 2.45198e-06, No Iterations 0
smoothSolver:  Solving for Uz, Initial residual = 0.0667508, Final residual = 4.86462e-06, No Iterations 8
DICPCG:  Solving for p, Initial residual = 1.36792e-06, Final residual = 7.24474e-07, No Iterations 3
time step continuity errors : sum local = 2.99423e-08, global = 8.5779e-09, cumulative = -8.14696e-07
DICPCG:  Solving for p, Initial residual = 1.1321e-06, Final residual = 9.5141e-07, No Iterations 2
time step continuity errors : sum local = 3.93214e-08, global = 9.75581e-09, cumulative = -8.0494e-07
Measured temperature: 249.973
Wall temperature: 244.961
Output signal: 0.0876285
DILUPBiCG:  Solving for T, Initial residual = 0.00642852, Final residual = 7.05848e-07, No Iterations 4
ExecutionTime = 0.29 s  ClockTime = 0 s

Time = 5.6

--
smoothSolver:  Solving for Uy, Initial residual = 3.0014e-06, Final residual = 3.0014e-06, No Iterations 0
smoothSolver:  Solving for Uz, Initial residual = 0.0666345, Final residual = 5.38457e-06, No Iterations 8
DICPCG:  Solving for p, Initial residual = 1.89821e-06, Final residual = 9.00031e-07, No Iterations 1
time step continuity errors : sum local = 3.7198e-08, global = 1.23784e-08, cumulative = -7.92562e-07
DICPCG:  Solving for p, Initial residual = 1.10766e-06, Final residual = 8.27264e-07, No Iterations 82
time step continuity errors : sum local = 3.41905e-08, global = -1.85116e-09, cumulative = -7.94413e-07
Measured temperature: 249.98
Wall temperature: 245.049
Output signal: 0.0549558
DILUPBiCG:  Solving for T, Initial residual = 0.00586366, Final residual = 3.30683e-07, No Iterations 4
ExecutionTime = 0.3 s  ClockTime = 0 s

Time = 5.7

--
smoothSolver:  Solving for Uy, Initial residual = 2.92912e-06, Final residual = 2.92912e-06, No Iterations 0
smoothSolver:  Solving for Uz, Initial residual = 0.0735834, Final residual = 5.43249e-06, No Iterations 8
DICPCG:  Solving for p, Initial residual = 1.92108e-06, Final residual = 8.65951e-07, No Iterations 60
time step continuity errors : sum local = 3.57883e-08, global = -3.74515e-10, cumulative = -7.94788e-07
DICPCG:  Solving for p, Initial residual = 1.42305e-06, Final residual = 9.76397e-07, No Iterations 1
time step continuity errors : sum local = 4.03535e-08, global = 4.03311e-10, cumulative = -7.94384e-07
Measured temperature: 249.986
Wall temperature: 245.104
Output signal: 0.0208032
DILUPBiCG:  Solving for T, Initial residual = 0.00527174, Final residual = 9.59978e-07, No Iterations 3
ExecutionTime = 0.3 s  ClockTime = 0 s

Time = 5.8

--
smoothSolver:  Solving for Uy, Initial residual = 3.26642e-06, Final residual = 3.26642e-06, No Iterations 0
smoothSolver:  Solving for Uz, Initial residual = 0.0746709, Final residual = 5.63229e-06, No Iterations 8
DICPCG:  Solving for p, Initial residual = 1.84914e-06, Final residual = 9.92117e-07, No Iterations 85
time step continuity errors : sum local = 4.10032e-08, global = -5.30144e-10, cumulative = -7.94915e-07
DICPCG:  Solving for p, Initial residual = 1.62714e-06, Final residual = 7.69247e-07, No Iterations 7
time step continuity errors : sum local = 3.17929e-08, global = 8.57624e-10, cumulative = -7.94057e-07
Measured temperature: 249.993
Wall temperature: 245.124
Output signal: -0.0144589
DILUPBiCG:  Solving for T, Initial residual = 0.00468408, Final residual = 8.57307e-07, No Iterations 3
ExecutionTime = 0.3 s  ClockTime = 0 s

Time = 5.9

--
smoothSolver:  Solving for Uy, Initial residual = 2.45616e-06, Final residual = 2.45616e-06, No Iterations 0
smoothSolver:  Solving for Uz, Initial residual = 0.0696636, Final residual = 5.81184e-06, No Iterations 8
DICPCG:  Solving for p, Initial residual = 1.77163e-06, Final residual = 9.24218e-07, No Iterations 34
time step continuity errors : sum local = 3.81978e-08, global = 5.73665e-09, cumulative = -7.8832e-07
DICPCG:  Solving for p, Initial residual = 1.49879e-06, Final residual = 8.68606e-07, No Iterations 1
time step continuity errors : sum local = 3.58994e-08, global = 8.41594e-09, cumulative = -7.79904e-07
Measured temperature: 250
Wall temperature: 245.11
Output signal: -0.0503413
DILUPBiCG:  Solving for T, Initial residual = 0.00477077, Final residual = 4.25478e-09, No Iterations 5
ExecutionTime = 0.31 s  ClockTime = 0 s

Time = 6

--
smoothSolver:  Solving for Uy, Initial residual = 3.51013e-06, Final residual = 3.51013e-06, No Iterations 0
smoothSolver:  Solving for Uz, Initial residual = 0.0785093, Final residual = 4.70365e-06, No Iterations 8
DICPCG:  Solving for p, Initial residual = 1.65328e-06, Final residual = 8.3708e-07, No Iterations 75
time step continuity errors : sum local = 3.45964e-08, global = -1.43933e-09, cumulative = -7.81344e-07
DICPCG:  Solving for p, Initial residual = 1.28665e-06, Final residual = 8.99987e-07, No Iterations 1
time step continuity errors : sum local = 3.71951e-08, global = -8.00363e-09, cumulative = -7.89347e-07
Measured temperature: 250.008
Wall temperature: 245.06
Output signal: -0.0864072
DILUPBiCG:  Solving for T, Initial residual = 0.00485606, Final residual = 9.67344e-07, No Iterations 3
ExecutionTime = 0.31 s  ClockTime = 0 s

Time = 6.1

--
smoothSolver:  Solving for Uy, Initial residual = 3.36063e-06, Final residual = 3.36063e-06, No Iterations 0
smoothSolver:  Solving for Uz, Initial residual = 0.0736709, Final residual = 5.56346e-06, No Iterations 8
DICPCG:  Solving for p, Initial residual = 1.70282e-06, Final residual = 9.21769e-07, No Iterations 90
time step continuity errors : sum local = 3.80953e-08, global = 1.40026e-09, cumulative = -7.87947e-07
DICPCG:  Solving for p, Initial residual = 1.53822e-06, Final residual = 9.75586e-07, No Iterations 1
time step continuity errors : sum local = 4.03209e-08, global = 6.16934e-09, cumulative = -7.81778e-07
Measured temperature: 250.015
Wall temperature: 244.973
Output signal: -0.122123
DILUPBiCG:  Solving for T, Initial residual = 0.00493638, Final residual = 1.32939e-07, No Iterations 4
ExecutionTime = 0.32 s  ClockTime = 0 s

Time = 6.2

--
smoothSolver:  Solving for Uy, Initial residual = 3.46597e-06, Final residual = 3.46597e-06, No Iterations 0
smoothSolver:  Solving for Uz, Initial residual = 0.0732489, Final residual = 5.52374e-06, No Iterations 8
DICPCG:  Solving for p, Initial residual = 1.87187e-06, Final residual = 9.61337e-07, No Iterations 56
time step continuity errors : sum local = 3.9732e-08, global = 2.56536e-09, cumulative = -7.79212e-07
DICPCG:  Solving for p, Initial residual = 1.57458e-06, Final residual = 6.53687e-07, No Iterations 29
time step continuity errors : sum local = 2.70166e-08, global = 5.08879e-09, cumulative = -7.74124e-07
Measured temperature: 250.022
Wall temperature: 244.851
Output signal: -0.156779
DILUPBiCG:  Solving for T, Initial residual = 0.00504388, Final residual = 1.25404e-07, No Iterations 4
ExecutionTime = 0.32 s  ClockTime = 0 s

Time = 6.3

--
smoothSolver:  Solving for Uy, Initial residual = 2.98907e-06, Final residual = 2.98907e-06, No Iterations 0
smoothSolver:  Solving for Uz, Initial residual = 0.0714052, Final residual = 4.93897e-06, No Iterations 8
DICPCG:  Solving for p, Initial residual = 1.68314e-06, Final residual = 8.61288e-07, No Iterations 1
time step continuity errors : sum local = 3.55967e-08, global = 7.2511e-09, cumulative = -7.66872e-07
DICPCG:  Solving for p, Initial residual = 1.21713e-06, Final residual = 8.56449e-07, No Iterations 14
time step continuity errors : sum local = 3.53967e-08, global = 6.55963e-09, cumulative = -7.60313e-07
Measured temperature: 250.029
Wall temperature: 244.694
Output signal: -0.190147
DILUPBiCG:  Solving for T, Initial residual = 0.00519214, Final residual = 1.30708e-07, No Iterations 4
ExecutionTime = 0.32 s  ClockTime = 0 s

Time = 6.4

--
smoothSolver:  Solving for Uy, Initial residual = 2.83808e-06, Final residual = 2.83808e-06, No Iterations 0
smoothSolver:  Solving for Uz, Initial residual = 0.0706406, Final residual = 5.1473e-06, No Iterations 8
DICPCG:  Solving for p, Initial residual = 1.95147e-06, Final residual = 9.93991e-07, No Iterations 42
time step continuity errors : sum local = 4.10812e-08, global = 4.32799e-09, cumulative = -7.55985e-07
DICPCG:  Solving for p, Initial residual = 1.61409e-06, Final residual = 9.962e-07, No Iterations 29
time step continuity errors : sum local = 4.11722e-08, global = 3.39003e-09, cumulative = -7.52595e-07
Measured temperature: 250.035
Wall temperature: 244.504
Output signal: -0.221491
DILUPBiCG:  Solving for T, Initial residual = 0.00537022, Final residual = 2.88448e-07, No Iterations 4
ExecutionTime = 0.33 s  ClockTime = 0 s

Time = 6.5

--
smoothSolver:  Solving for Uy, Initial residual = 3.54274e-06, Final residual = 3.54274e-06, No Iterations 0
smoothSolver:  Solving for Uz, Initial residual = 0.0679941, Final residual = 5.7324e-06, No Iterations 8
DICPCG:  Solving for p, Initial residual = 2.05001e-06, Final residual = 9.77811e-07, No Iterations 10
time step continuity errors : sum local = 4.04122e-08, global = 9.42649e-10, cumulative = -7.51652e-07
DICPCG:  Solving for p, Initial residual = 1.71579e-06, Final residual = 8.41392e-07, No Iterations 1
time step continuity errors : sum local = 3.47741e-08, global = -3.66626e-10, cumulative = -7.52019e-07
Measured temperature: 250.041
Wall temperature: 244.283
Output signal: -0.250295
DILUPBiCG:  Solving for T, Initial residual = 0.00553854, Final residual = 6.16764e-07, No Iterations 4
ExecutionTime = 0.33 s  ClockTime = 0 s

Time = 6.6

--
smoothSolver:  Solving for Uy, Initial residual = 3.74697e-06, Final residual = 3.74697e-06, No Iterations 0
smoothSolver:  Solving for Uz, Initial residual = 0.0710146, Final residual = 4.42618e-06, No Iterations 8
DICPCG:  Solving for p, Initial residual = 1.77364e-06, Final residual = 8.2924e-07, No Iterations 5
time step continuity errors : sum local = 3.42719e-08, global = -9.58186e-10, cumulative = -7.52977e-07
DICPCG:  Solving for p, Initial residual = 1.37309e-06, Final residual = 6.48719e-07, No Iterations 3
time step continuity errors : sum local = 2.6811e-08, global = -7.29973e-10, cumulative = -7.53707e-07
Measured temperature: 250.046
Wall temperature: 244.032
Output signal: -0.276373
DILUPBiCG:  Solving for T, Initial residual = 0.00569968, Final residual = 3.47605e-08, No Iterations 5
ExecutionTime = 0.33 s  ClockTime = 0 s

Time = 6.7

--
smoothSolver:  Solving for Uy, Initial residual = 3.36237e-06, Final residual = 3.36237e-06, No Iterations 0
smoothSolver:  Solving for Uz, Initial residual = 0.0706105, Final residual = 5.35267e-06, No Iterations 8
DICPCG:  Solving for p, Initial residual = 1.75311e-06, Final residual = 8.32646e-07, No Iterations 1
time step continuity errors : sum local = 3.44126e-08, global = -1.08215e-09, cumulative = -7.54789e-07
DICPCG:  Solving for p, Initial residual = 1.22937e-06, Final residual = 9.50396e-07, No Iterations 1
time step continuity errors : sum local = 3.92791e-08, global = -1.36292e-09, cumulative = -7.56152e-07
Measured temperature: 250.051
Wall temperature: 243.756
Output signal: -0.299068
DILUPBiCG:  Solving for T, Initial residual = 0.0058613, Final residual = 3.59128e-08, No Iterations 5
ExecutionTime = 0.34 s  ClockTime = 0 s

Time = 6.8

--
smoothSolver:  Solving for Uy, Initial residual = 3.9413e-06, Final residual = 3.9413e-06, No Iterations 0
smoothSolver:  Solving for Uz, Initial residual = 0.0747572, Final residual = 5.21536e-06, No Iterations 8
DICPCG:  Solving for p, Initial residual = 1.30824e-06, Final residual = 9.83337e-07, No Iterations 4
time step continuity errors : sum local = 4.06406e-08, global = -2.13635e-09, cumulative = -7.58288e-07
DICPCG:  Solving for p, Initial residual = 1.76799e-06, Final residual = 9.19088e-07, No Iterations 1
time step continuity errors : sum local = 3.79852e-08, global = -2.57483e-09, cumulative = -7.60863e-07
Measured temperature: 250.055
Wall temperature: 243.457
Output signal: -0.318296
DILUPBiCG:  Solving for T, Initial residual = 0.00599972, Final residual = 3.69375e-08, No Iterations 5
ExecutionTime = 0.34 s  ClockTime = 0 s

Time = 6.9

--
smoothSolver:  Solving for Uy, Initial residual = 2.81316e-06, Final residual = 2.81316e-06, No Iterations 0
smoothSolver:  Solving for Uz, Initial residual = 0.0757784, Final residual = 5.04852e-06, No Iterations 8
DICPCG:  Solving for p, Initial residual = 1.77003e-06, Final residual = 9.1748e-07, No Iterations 5
time step continuity errors : sum local = 3.79188e-08, global = -3.76494e-09, cumulative = -7.64628e-07
DICPCG:  Solving for p, Initial residual = 1.40394e-06, Final residual = 5.84127e-07, No Iterations 3
time step continuity errors : sum local = 2.41415e-08, global = -3.6918e-09, cumulative = -7.6832e-07
Measured temperature: 250.058
Wall temperature: 243.139
Output signal: -0.333852
DILUPBiCG:  Solving for T, Initial residual = 0.00610407, Final residual = 3.76157e-08, No Iterations 5
ExecutionTime = 0.34 s  ClockTime = 0 s

Time = 7

--
smoothSolver:  Solving for Uy, Initial residual = 3.31717e-06, Final residual = 3.31717e-06, No Iterations 0
smoothSolver:  Solving for Uz, Initial residual = 0.0781795, Final residual = 5.16349e-06, No Iterations 8
DICPCG:  Solving for p, Initial residual = 1.78472e-06, Final residual = 8.17193e-07, No Iterations 1
time step continuity errors : sum local = 3.3774e-08, global = -4.75418e-09, cumulative = -7.73074e-07
DICPCG:  Solving for p, Initial residual = 1.19856e-06, Final residual = 8.06871e-07, No Iterations 1
time step continuity errors : sum local = 3.33474e-08, global = -5.71987e-09, cumulative = -7.78794e-07
Measured temperature: 250.06
Wall temperature: 242.805
Output signal: -0.34567
DILUPBiCG:  Solving for T, Initial residual = 0.0061757, Final residual = 3.81041e-08, No Iterations 5
ExecutionTime = 0.36 s  ClockTime = 0 s

Time = 7.1

--
smoothSolver:  Solving for Uy, Initial residual = 4.17238e-06, Final residual = 4.17238e-06, No Iterations 0
smoothSolver:  Solving for Uz, Initial residual = 0.0756886, Final residual = 4.859e-06, No Iterations 8
DICPCG:  Solving for p, Initial residual = 1.10124e-06, Final residual = 8.06845e-07, No Iterations 1
time step continuity errors : sum local = 3.33463e-08, global = -6.55683e-09, cumulative = -7.85351e-07
DICPCG:  Solving for p, Initial residual = 1.27543e-06, Final residual = 7.10623e-07, No Iterations 1
time step continuity errors : sum local = 2.93695e-08, global = -7.02741e-09, cumulative = -7.92378e-07
Measured temperature: 250.062
Wall temperature: 242.459
Output signal: -0.353823
DILUPBiCG:  Solving for T, Initial residual = 0.00621913, Final residual = 3.82863e-08, No Iterations 5
ExecutionTime = 0.36 s  ClockTime = 0 s

Time = 7.2

--
smoothSolver:  Solving for Uy, Initial residual = 3.2508e-06, Final residual = 3.2508e-06, No Iterations 0
smoothSolver:  Solving for Uz, Initial residual = 0.0740232, Final residual = 5.8824e-06, No Iterations 8
DICPCG:  Solving for p, Initial residual = 1.20341e-06, Final residual = 8.40825e-07, No Iterations 1
time step continuity errors : sum local = 3.47507e-08, global = -7.5497e-09, cumulative = -7.99928e-07
DICPCG:  Solving for p, Initial residual = 9.50358e-07, Final residual = 9.50358e-07, No Iterations 0
time step continuity errors : sum local = 3.92776e-08, global = -8.0307e-09, cumulative = -8.07959e-07
Measured temperature: 250.063
Wall temperature: 242.105
Output signal: -0.358265
DILUPBiCG:  Solving for T, Initial residual = 0.00624105, Final residual = 3.8194e-08, No Iterations 5
ExecutionTime = 0.36 s  ClockTime = 0 s

Time = 7.3

--
smoothSolver:  Solving for Uy, Initial residual = 3.40912e-06, Final residual = 3.40912e-06, No Iterations 0
smoothSolver:  Solving for Uz, Initial residual = 0.0564569, Final residual = 5.0562e-06, No Iterations 8
DICPCG:  Solving for p, Initial residual = 2.03265e-06, Final residual = 8.58733e-07, No Iterations 1
time step continuity errors : sum local = 3.54908e-08, global = -8.95626e-09, cumulative = -8.16915e-07
DICPCG:  Solving for p, Initial residual = 1.13869e-06, Final residual = 7.49983e-07, No Iterations 1
time step continuity errors : sum local = 3.09962e-08, global = -9.96532e-09, cumulative = -8.2688e-07
Measured temperature: 250.063
Wall temperature: 241.747
Output signal: -0.359101
DILUPBiCG:  Solving for T, Initial residual = 0.00622362, Final residual = 3.76364e-08, No Iterations 5
ExecutionTime = 0.37 s  ClockTime = 0 s

Time = 7.4

--
smoothSolver:  Solving for Uy, Initial residual = 3.34195e-06, Final residual = 3.34195e-06, No Iterations 0
smoothSolver:  Solving for Uz, Initial residual = 0.0747793, Final residual = 4.91185e-06, No Iterations 8
DICPCG:  Solving for p, Initial residual = 9.42212e-07, Final residual = 9.42212e-07, No Iterations 0
time step continuity errors : sum local = 3.89409e-08, global = -1.1189e-08, cumulative = -8.38069e-07
DICPCG:  Solving for p, Initial residual = 1.3048e-06, Final residual = 6.35071e-07, No Iterations 1
time step continuity errors : sum local = 2.6247e-08, global = -1.21998e-08, cumulative = -8.50269e-07
Measured temperature: 250.063
Wall temperature: 241.388
Output signal: -0.356616
DILUPBiCG:  Solving for T, Initial residual = 0.00616852, Final residual = 3.67908e-08, No Iterations 5
ExecutionTime = 0.37 s  ClockTime = 0 s

Time = 7.5

--
smoothSolver:  Solving for Uy, Initial residual = 1.83042e-06, Final residual = 1.83042e-06, No Iterations 0
smoothSolver:  Solving for Uz, Initial residual = 0.0528822, Final residual = 5.29678e-06, No Iterations 8
DICPCG:  Solving for p, Initial residual = 1.02598e-06, Final residual = 5.64252e-07, No Iterations 1
time step continuity errors : sum local = 2.33201e-08, global = -1.32191e-08, cumulative = -8.63488e-07
DICPCG:  Solving for p, Initial residual = 7.8691e-07, Final residual = 7.8691e-07, No Iterations 0
time step continuity errors : sum local = 3.25224e-08, global = -1.39905e-08, cumulative = -8.77479e-07
Measured temperature: 250.062
Wall temperature: 241.031
Output signal: -0.35108
DILUPBiCG:  Solving for T, Initial residual = 0.00607968, Final residual = 3.57479e-08, No Iterations 5
ExecutionTime = 0.37 s  ClockTime = 0 s

Time = 7.6

--
smoothSolver:  Solving for Uy, Initial residual = 2.00874e-06, Final residual = 2.00874e-06, No Iterations 0
smoothSolver:  Solving for Uz, Initial residual = 0.0472434, Final residual = 4.08132e-06, No Iterations 8
DICPCG:  Solving for p, Initial residual = 1.66948e-06, Final residual = 6.75602e-07, No Iterations 1
time step continuity errors : sum local = 2.79221e-08, global = -1.46922e-08, cumulative = -8.92171e-07
DICPCG:  Solving for p, Initial residual = 9.34162e-07, Final residual = 9.34162e-07, No Iterations 0
time step continuity errors : sum local = 3.86082e-08, global = -1.51967e-08, cumulative = -9.07368e-07
Measured temperature: 250.06
Wall temperature: 240.68
Output signal: -0.342716
DILUPBiCG:  Solving for T, Initial residual = 0.00596076, Final residual = 3.43963e-08, No Iterations 5
ExecutionTime = 0.37 s  ClockTime = 0 s

Time = 7.7

--
smoothSolver:  Solving for Uy, Initial residual = 2.58184e-06, Final residual = 2.58184e-06, No Iterations 0
smoothSolver:  Solving for Uz, Initial residual = 0.0499767, Final residual = 4.62594e-06, No Iterations 8
DICPCG:  Solving for p, Initial residual = 2.00703e-06, Final residual = 8.01694e-07, No Iterations 1
time step continuity errors : sum local = 3.31334e-08, global = -1.57112e-08, cumulative = -9.23079e-07
DICPCG:  Solving for p, Initial residual = 9.92427e-07, Final residual = 9.92427e-07, No Iterations 0
time step continuity errors : sum local = 4.10162e-08, global = -1.62354e-08, cumulative = -9.39314e-07
Measured temperature: 250.058
Wall temperature: 240.337
Output signal: -0.33181
DILUPBiCG:  Solving for T, Initial residual = 0.00581597, Final residual = 3.28869e-08, No Iterations 5
ExecutionTime = 0.38 s  ClockTime = 0 s

Time = 7.8

--
smoothSolver:  Solving for Uy, Initial residual = 3.14902e-06, Final residual = 3.14902e-06, No Iterations 0
smoothSolver:  Solving for Uz, Initial residual = 0.0495852, Final residual = 4.63225e-06, No Iterations 8
DICPCG:  Solving for p, Initial residual = 2.12811e-06, Final residual = 8.53348e-07, No Iterations 1
time step continuity errors : sum local = 3.52682e-08, global = -1.71155e-08, cumulative = -9.5643e-07
DICPCG:  Solving for p, Initial residual = 1.05969e-06, Final residual = 7.90187e-07, No Iterations 1
time step continuity errors : sum local = 3.26578e-08, global = -1.74385e-08, cumulative = -9.73868e-07
Measured temperature: 250.056
Wall temperature: 240.006
Output signal: -0.318688
DILUPBiCG:  Solving for T, Initial residual = 0.00565217, Final residual = 3.11649e-08, No Iterations 5
ExecutionTime = 0.38 s  ClockTime = 0 s

Time = 7.9

--
smoothSolver:  Solving for Uy, Initial residual = 2.15767e-06, Final residual = 2.15767e-06, No Iterations 0
smoothSolver:  Solving for Uz, Initial residual = 0.0791575, Final residual = 5.08874e-06, No Iterations 8
DICPCG:  Solving for p, Initial residual = 1.20409e-06, Final residual = 7.38369e-07, No Iterations 1
time step continuity errors : sum local = 3.05162e-08, global = -1.77493e-08, cumulative = -9.91617e-07
DICPCG:  Solving for p, Initial residual = 8.52786e-07, Final residual = 8.52786e-07, No Iterations 0
time step continuity errors : sum local = 3.5245e-08, global = -1.79845e-08, cumulative = -1.0096e-06
Measured temperature: 250.053
Wall temperature: 239.687
Output signal: -0.303754
DILUPBiCG:  Solving for T, Initial residual = 0.00546994, Final residual = 2.92896e-08, No Iterations 5
ExecutionTime = 0.38 s  ClockTime = 0 s

Time = 8

--
smoothSolver:  Solving for Uy, Initial residual = 1.08454e-06, Final residual = 1.08454e-06, No Iterations 0
smoothSolver:  Solving for Uz, Initial residual = 0.0578458, Final residual = 4.87345e-06, No Iterations 8
DICPCG:  Solving for p, Initial residual = 1.39399e-06, Final residual = 8.38803e-07, No Iterations 1
time step continuity errors : sum local = 3.46671e-08, global = -1.83321e-08, cumulative = -1.02793e-06
DICPCG:  Solving for p, Initial residual = 9.24012e-07, Final residual = 9.24012e-07, No Iterations 0
time step continuity errors : sum local = 3.81887e-08, global = -1.86878e-08, cumulative = -1.04662e-06
Measured temperature: 250.05
Wall temperature: 239.383
Output signal: -0.287259
DILUPBiCG:  Solving for T, Initial residual = 0.00526641, Final residual = 2.73605e-08, No Iterations 5
ExecutionTime = 0.39 s  ClockTime = 0 s

Time = 8.1

--
smoothSolver:  Solving for Uy, Initial residual = 1.22592e-06, Final residual = 1.22592e-06, No Iterations 0
smoothSolver:  Solving for Uz, Initial residual = 0.0559251, Final residual = 5.3481e-06, No Iterations 8
DICPCG:  Solving for p, Initial residual = 1.35784e-06, Final residual = 8.53393e-07, No Iterations 1
time step continuity errors : sum local = 3.527e-08, global = -1.94979e-08, cumulative = -1.06612e-06
DICPCG:  Solving for p, Initial residual = 9.06612e-07, Final residual = 9.06612e-07, No Iterations 0
time step continuity errors : sum local = 3.74696e-08, global = -2.00411e-08, cumulative = -1.08616e-06
Measured temperature: 250.046
Wall temperature: 239.096
Output signal: -0.269548
DILUPBiCG:  Solving for T, Initial residual = 0.00504576, Final residual = 2.53423e-08, No Iterations 5
ExecutionTime = 0.39 s  ClockTime = 0 s

Time = 8.2

--
smoothSolver:  Solving for Uy, Initial residual = 1.52246e-06, Final residual = 1.52246e-06, No Iterations 0
smoothSolver:  Solving for Uz, Initial residual = 0.0562012, Final residual = 5.4062e-06, No Iterations 8
DICPCG:  Solving for p, Initial residual = 1.46671e-06, Final residual = 8.56476e-07, No Iterations 1
time step continuity errors : sum local = 3.53975e-08, global = -2.09028e-08, cumulative = -1.10706e-06
DICPCG:  Solving for p, Initial residual = 9.67644e-07, Final residual = 9.67644e-07, No Iterations 0
time step continuity errors : sum local = 3.9992e-08, global = -2.14309e-08, cumulative = -1.12849e-06
Measured temperature: 250.042
Wall temperature: 238.826
Output signal: -0.251009
DILUPBiCG:  Solving for T, Initial residual = 0.00481235, Final residual = 2.33248e-08, No Iterations 5
ExecutionTime = 0.39 s  ClockTime = 0 s

Time = 8.3

--
smoothSolver:  Solving for Uy, Initial residual = 1.50464e-06, Final residual = 1.50464e-06, No Iterations 0
smoothSolver:  Solving for Uz, Initial residual = 0.0520104, Final residual = 4.61422e-06, No Iterations 8
DICPCG:  Solving for p, Initial residual = 1.59338e-06, Final residual = 9.46714e-07, No Iterations 1
time step continuity errors : sum local = 3.9127e-08, global = -2.18915e-08, cumulative = -1.15039e-06
DICPCG:  Solving for p, Initial residual = 1.0418e-06, Final residual = 8.36538e-07, No Iterations 1
time step continuity errors : sum local = 3.45735e-08, global = -2.21859e-08, cumulative = -1.17257e-06
Measured temperature: 250.039
Wall temperature: 238.575
Output signal: -0.231912
DILUPBiCG:  Solving for T, Initial residual = 0.00456971, Final residual = 2.12724e-08, No Iterations 5
ExecutionTime = 0.4 s  ClockTime = 0 s

Time = 8.4

--
smoothSolver:  Solving for Uy, Initial residual = 1.78148e-06, Final residual = 1.78148e-06, No Iterations 0
smoothSolver:  Solving for Uz, Initial residual = 0.0726811, Final residual = 4.94246e-06, No Iterations 8
DICPCG:  Solving for p, Initial residual = 1.10753e-06, Final residual = 8.15673e-07, No Iterations 1
time step continuity errors : sum local = 3.37111e-08, global = -2.29741e-08, cumulative = -1.19555e-06
DICPCG:  Solving for p, Initial residual = 9.60125e-07, Final residual = 9.60125e-07, No Iterations 0
time step continuity errors : sum local = 3.96812e-08, global = -2.35147e-08, cumulative = -1.21906e-06
Measured temperature: 250.035
Wall temperature: 238.343
Output signal: -0.212439
DILUPBiCG:  Solving for T, Initial residual = 0.00432053, Final residual = 1.92548e-08, No Iterations 5
ExecutionTime = 0.4 s  ClockTime = 1 s

Time = 8.5

--
smoothSolver:  Solving for Uy, Initial residual = 1.2514e-06, Final residual = 1.2514e-06, No Iterations 0
smoothSolver:  Solving for Uz, Initial residual = 0.0542519, Final residual = 5.64514e-06, No Iterations 8
DICPCG:  Solving for p, Initial residual = 1.54776e-06, Final residual = 8.89727e-07, No Iterations 46
time step continuity errors : sum local = 3.67717e-08, global = 2.21031e-09, cumulative = -1.21685e-06
DICPCG:  Solving for p, Initial residual = 1.57935e-06, Final residual = 9.61553e-07, No Iterations 86
time step continuity errors : sum local = 3.97434e-08, global = -5.27572e-10, cumulative = -1.21738e-06
Measured temperature: 250.031
Wall temperature: 238.131
Output signal: -0.192905
DILUPBiCG:  Solving for T, Initial residual = 0.00406811, Final residual = 1.7308e-08, No Iterations 5
ExecutionTime = 0.4 s  ClockTime = 1 s

Time = 8.6

--
smoothSolver:  Solving for Uy, Initial residual = 2.73772e-06, Final residual = 2.73772e-06, No Iterations 0
smoothSolver:  Solving for Uz, Initial residual = 0.0785514, Final residual = 4.78341e-06, No Iterations 8
DICPCG:  Solving for p, Initial residual = 2.05641e-06, Final residual = 7.24291e-07, No Iterations 81
time step continuity errors : sum local = 2.99354e-08, global = -9.63618e-11, cumulative = -1.21747e-06
DICPCG:  Solving for p, Initial residual = 1.17139e-06, Final residual = 9.75518e-07, No Iterations 1
time step continuity errors : sum local = 4.03176e-08, global = 4.99712e-10, cumulative = -1.21697e-06
Measured temperature: 250.027
Wall temperature: 237.938
Output signal: -0.173531
DILUPBiCG:  Solving for T, Initial residual = 0.00381502, Final residual = 1.53728e-08, No Iterations 5
ExecutionTime = 0.41 s  ClockTime = 1 s

Time = 8.7

--
smoothSolver:  Solving for Uy, Initial residual = 2.44408e-06, Final residual = 2.44408e-06, No Iterations 0
smoothSolver:  Solving for Uz, Initial residual = 0.075995, Final residual = 6.21649e-06, No Iterations 8
DICPCG:  Solving for p, Initial residual = 1.85879e-06, Final residual = 8.68092e-07, No Iterations 19
time step continuity errors : sum local = 3.58778e-08, global = 2.77148e-09, cumulative = -1.2142e-06
DICPCG:  Solving for p, Initial residual = 1.35635e-06, Final residual = 8.52276e-07, No Iterations 11
time step continuity errors : sum local = 3.52241e-08, global = 3.38936e-09, cumulative = -1.21081e-06
Measured temperature: 250.023
Wall temperature: 237.765
Output signal: -0.154418
DILUPBiCG:  Solving for T, Initial residual = 0.00356292, Final residual = 1.35282e-08, No Iterations 5
ExecutionTime = 0.41 s  ClockTime = 1 s

Time = 8.8

--
smoothSolver:  Solving for Uy, Initial residual = 1.83963e-06, Final residual = 1.83963e-06, No Iterations 0
smoothSolver:  Solving for Uz, Initial residual = 0.0756621, Final residual = 3.87014e-06, No Iterations 8
DICPCG:  Solving for p, Initial residual = 1.75357e-06, Final residual = 8.60178e-07, No Iterations 6
time step continuity errors : sum local = 3.55507e-08, global = 5.40489e-09, cumulative = -1.20541e-06
DICPCG:  Solving for p, Initial residual = 1.65399e-06, Final residual = 9.76854e-07, No Iterations 1
time step continuity errors : sum local = 4.03728e-08, global = 6.45885e-09, cumulative = -1.19895e-06
Measured temperature: 250.019
Wall temperature: 237.61
Output signal: -0.135753
DILUPBiCG:  Solving for T, Initial residual = 0.00331386, Final residual = 8.62155e-07, No Iterations 4
ExecutionTime = 0.41 s  ClockTime = 1 s

Time = 8.9

--
smoothSolver:  Solving for Uy, Initial residual = 2.75123e-06, Final residual = 2.75123e-06, No Iterations 0
smoothSolver:  Solving for Uz, Initial residual = 0.0698033, Final residual = 4.41505e-06, No Iterations 8
DICPCG:  Solving for p, Initial residual = 1.90641e-06, Final residual = 7.59168e-07, No Iterations 16
time step continuity errors : sum local = 3.1376e-08, global = 2.59735e-09, cumulative = -1.19635e-06
DICPCG:  Solving for p, Initial residual = 1.14611e-06, Final residual = 7.92981e-07, No Iterations 1
time step continuity errors : sum local = 3.27734e-08, global = -1.77126e-10, cumulative = -1.19653e-06
Measured temperature: 250.016
Wall temperature: 237.474
Output signal: -0.117688
DILUPBiCG:  Solving for T, Initial residual = 0.00306954, Final residual = 7.19544e-07, No Iterations 4
ExecutionTime = 0.41 s  ClockTime = 1 s

Time = 9

--
smoothSolver:  Solving for Uy, Initial residual = 3.24013e-06, Final residual = 3.24013e-06, No Iterations 0
smoothSolver:  Solving for Uz, Initial residual = 0.0790744, Final residual = 4.91208e-06, No Iterations 8
DICPCG:  Solving for p, Initial residual = 1.71478e-06, Final residual = 8.36345e-07, No Iterations 13
time step continuity errors : sum local = 3.45657e-08, global = 2.30982e-09, cumulative = -1.19422e-06
DICPCG:  Solving for p, Initial residual = 1.48381e-06, Final residual = 9.82716e-07, No Iterations 1
time step continuity errors : sum local = 4.06151e-08, global = 2.93552e-09, cumulative = -1.19128e-06
Measured temperature: 250.012
Wall temperature: 237.357
Output signal: -0.100461
DILUPBiCG:  Solving for T, Initial residual = 0.00283226, Final residual = 5.90573e-07, No Iterations 4
ExecutionTime = 0.42 s  ClockTime = 1 s

Time = 9.1

--
smoothSolver:  Solving for Uy, Initial residual = 4.71424e-06, Final residual = 4.71424e-06, No Iterations 0
smoothSolver:  Solving for Uz, Initial residual = 0.0734158, Final residual = 6.40542e-06, No Iterations 8
DICPCG:  Solving for p, Initial residual = 1.84902e-06, Final residual = 7.4872e-07, No Iterations 7
time step continuity errors : sum local = 3.09442e-08, global = 1.38704e-09, cumulative = -1.1899e-06
DICPCG:  Solving for p, Initial residual = 1.29081e-06, Final residual = 8.54278e-07, No Iterations 3
time step continuity errors : sum local = 3.53068e-08, global = 1.07952e-09, cumulative = -1.18882e-06
Measured temperature: 250.009
Wall temperature: 237.256
Output signal: -0.0839463
DILUPBiCG:  Solving for T, Initial residual = 0.00260077, Final residual = 8.79097e-07, No Iterations 3
ExecutionTime = 0.42 s  ClockTime = 1 s

Time = 9.2

--
smoothSolver:  Solving for Uy, Initial residual = 2.9954e-06, Final residual = 2.9954e-06, No Iterations 0
smoothSolver:  Solving for Uz, Initial residual = 0.0678843, Final residual = 4.92178e-06, No Iterations 8
DICPCG:  Solving for p, Initial residual = 2.06471e-06, Final residual = 7.58947e-07, No Iterations 3
time step continuity errors : sum local = 3.13669e-08, global = -4.4982e-10, cumulative = -1.18927e-06
DICPCG:  Solving for p, Initial residual = 1.34446e-06, Final residual = 9.46448e-07, No Iterations 1
time step continuity errors : sum local = 3.91161e-08, global = -7.69164e-10, cumulative = -1.19004e-06
Measured temperature: 250.006
Wall temperature: 237.172
Output signal: -0.0682822
[...]
ExecutionTime = 0.48 s  ClockTime = 1 s

Time = 11.8

--
smoothSolver:  Solving for Uy, Initial residual = 2.29243e-06, Final residual = 2.29243e-06, No Iterations 0
smoothSolver:  Solving for Uz, Initial residual = 0.0668648, Final residual = 4.83159e-06, No Iterations 8
DICPCG:  Solving for p, Initial residual = 1.13559e-06, Final residual = 7.05601e-07, No Iterations 1
time step continuity errors : sum local = 2.91621e-08, global = 2.96039e-09, cumulative = -1.18615e-06
DICPCG:  Solving for p, Initial residual = 8.88587e-07, Final residual = 8.88587e-07, No Iterations 0
time step continuity errors : sum local = 3.67248e-08, global = 2.82272e-09, cumulative = -1.18332e-06
Measured temperature: 249.978
Wall temperature: 237.994
Output signal: 0.0663704
DILUPBiCG:  Solving for T, Initial residual = 0.00118557, Final residual = 5.30231e-07, No Iterations 3
ExecutionTime = 0.48 s  ClockTime = 1 s

Time = 11.9

--
smoothSolver:  Solving for Uy, Initial residual = 1.83678e-06, Final residual = 1.83678e-06, No Iterations 0
smoothSolver:  Solving for Uz, Initial residual = 0.0562847, Final residual = 4.98446e-06, No Iterations 8
DICPCG:  Solving for p, Initial residual = 1.63794e-06, Final residual = 8.21402e-07, No Iterations 2
time step continuity errors : sum local = 3.39481e-08, global = 3.91415e-09, cumulative = -1.17941e-06
DICPCG:  Solving for p, Initial residual = 1.4021e-06, Final residual = 7.18298e-07, No Iterations 1
time step continuity errors : sum local = 2.96868e-08, global = 4.58749e-09, cumulative = -1.17482e-06
Measured temperature: 249.978
Wall temperature: 238.061
Output signal: 0.0652013
DILUPBiCG:  Solving for T, Initial residual = 0.00116947, Final residual = 5.27242e-07, No Iterations 3
ExecutionTime = 0.49 s  ClockTime = 1 s

Time = 12

--
smoothSolver:  Solving for Uy, Initial residual = 2.16445e-06, Final residual = 2.16445e-06, No Iterations 0
smoothSolver:  Solving for Uz, Initial residual = 0.0764763, Final residual = 5.52987e-06, No Iterations 8
DICPCG:  Solving for p, Initial residual = 1.51956e-06, Final residual = 7.5504e-07, No Iterations 1
time step continuity errors : sum local = 3.12054e-08, global = 4.82902e-09, cumulative = -1.16999e-06
DICPCG:  Solving for p, Initial residual = 1.0441e-06, Final residual = 6.76955e-07, No Iterations 1
time step continuity errors : sum local = 2.79781e-08, global = 4.82424e-09, cumulative = -1.16517e-06
Measured temperature: 249.979
Wall temperature: 238.126
Output signal: 0.0639331
DILUPBiCG:  Solving for T, Initial residual = 0.00115199, Final residual = 5.23535e-07, No Iterations 3
ExecutionTime = 0.49 s  ClockTime = 1 s

Time = 12.1

--
smoothSolver:  Solving for Uy, Initial residual = 7.68465e-07, Final residual = 7.68465e-07, No Iterations 0
smoothSolver:  Solving for Uz, Initial residual = 0.0762902, Final residual = 4.56183e-06, No Iterations 8
DICPCG:  Solving for p, Initial residual = 8.16824e-07, Final residual = 8.16824e-07, No Iterations 0
time step continuity errors : sum local = 3.37588e-08, global = 4.92997e-09, cumulative = -1.16024e-06
DICPCG:  Solving for p, Initial residual = 9.05964e-07, Final residual = 9.05964e-07, No Iterations 0
time step continuity errors : sum local = 3.7443e-08, global = 4.99903e-09, cumulative = -1.15524e-06
Measured temperature: 249.979
Wall temperature: 238.19
Output signal: 0.0624252
DILUPBiCG:  Solving for T, Initial residual = 0.00113265, Final residual = 5.17238e-07, No Iterations 3
ExecutionTime = 0.49 s  ClockTime = 1 s

Time = 12.2

--
smoothSolver:  Solving for Uy, Initial residual = 7.22124e-07, Final residual = 7.22124e-07, No Iterations 0
smoothSolver:  Solving for Uz, Initial residual = 0.034809, Final residual = 8.46631e-06, No Iterations 7
DICPCG:  Solving for p, Initial residual = 1.18551e-06, Final residual = 6.21023e-07, No Iterations 1
time step continuity errors : sum local = 2.56665e-08, global = 4.8041e-09, cumulative = -1.15044e-06
DICPCG:  Solving for p, Initial residual = 6.45679e-07, Final residual = 6.45679e-07, No Iterations 0
time step continuity errors : sum local = 2.66856e-08, global = 4.76669e-09, cumulative = -1.14567e-06
Measured temperature: 249.979
Wall temperature: 238.252
Output signal: 0.0607206
DILUPBiCG:  Solving for T, Initial residual = 0.00111189, Final residual = 5.09842e-07, No Iterations 3
ExecutionTime = 0.5 s  ClockTime = 1 s

Time = 12.3

--
smoothSolver:  Solving for Uy, Initial residual = 1.46982e-06, Final residual = 1.46982e-06, No Iterations 0
smoothSolver:  Solving for Uz, Initial residual = 0.0529987, Final residual = 4.72875e-06, No Iterations 8
DICPCG:  Solving for p, Initial residual = 1.23695e-06, Final residual = 6.40008e-07, No Iterations 1
time step continuity errors : sum local = 2.64512e-08, global = 4.80453e-09, cumulative = -1.14087e-06
DICPCG:  Solving for p, Initial residual = 7.49951e-07, Final residual = 7.49951e-07, No Iterations 0
time step continuity errors : sum local = 3.0995e-08, global = 4.8377e-09, cumulative = -1.13603e-06
Measured temperature: 249.98
Wall temperature: 238.313
Output signal: 0.0588078
DILUPBiCG:  Solving for T, Initial residual = 0.00109016, Final residual = 4.99595e-07, No Iterations 3
ExecutionTime = 0.5 s  ClockTime = 1 s

Time = 12.4

--
smoothSolver:  Solving for Uy, Initial residual = 1.17815e-06, Final residual = 1.17815e-06, No Iterations 0
smoothSolver:  Solving for Uz, Initial residual = 0.0591707, Final residual = 4.25191e-06, No Iterations 8
DICPCG:  Solving for p, Initial residual = 1.22922e-06, Final residual = 6.61839e-07, No Iterations 1
time step continuity errors : sum local = 2.73534e-08, global = 4.604e-09, cumulative = -1.13142e-06
DICPCG:  Solving for p, Initial residual = 7.53089e-07, Final residual = 7.53089e-07, No Iterations 0
time step continuity errors : sum local = 3.11247e-08, global = 4.3532e-09, cumulative = -1.12707e-06
Measured temperature: 249.98
Wall temperature: 238.372
Output signal: 0.056762
DILUPBiCG:  Solving for T, Initial residual = 0.00106624, Final residual = 4.87458e-07, No Iterations 3
ExecutionTime = 0.5 s  ClockTime = 1 s

Time = 12.5

--
smoothSolver:  Solving for Uy, Initial residual = 2.00618e-06, Final residual = 2.00618e-06, No Iterations 0
smoothSolver:  Solving for Uz, Initial residual = 0.0499913, Final residual = 4.41681e-06, No Iterations 8
DICPCG:  Solving for p, Initial residual = 1.48208e-06, Final residual = 6.91912e-07, No Iterations 1
time step continuity errors : sum local = 2.85963e-08, global = 3.73441e-09, cumulative = -1.12334e-06
DICPCG:  Solving for p, Initial residual = 7.80693e-07, Final residual = 7.80693e-07, No Iterations 0
time step continuity errors : sum local = 3.22656e-08, global = 3.45316e-09, cumulative = -1.11988e-06
Measured temperature: 249.981
Wall temperature: 238.428
Output signal: 0.0545584
DILUPBiCG:  Solving for T, Initial residual = 0.00104, Final residual = 4.74693e-07, No Iterations 3
ExecutionTime = 0.5 s  ClockTime = 1 s

Time = 12.6

--
smoothSolver:  Solving for Uy, Initial residual = 1.31853e-06, Final residual = 1.31853e-06, No Iterations 0
smoothSolver:  Solving for Uz, Initial residual = 0.0513313, Final residual = 4.27784e-06, No Iterations 8
DICPCG:  Solving for p, Initial residual = 1.27836e-06, Final residual = 6.70326e-07, No Iterations 1
time step continuity errors : sum local = 2.77042e-08, global = 3.53543e-09, cumulative = -1.11635e-06
DICPCG:  Solving for p, Initial residual = 7.739e-07, Final residual = 7.739e-07, No Iterations 0
time step continuity errors : sum local = 3.19848e-08, global = 3.61175e-09, cumulative = -1.11274e-06
Measured temperature: 249.981
Wall temperature: 238.483
Output signal: 0.0521478
DILUPBiCG:  Solving for T, Initial residual = 0.0010111, Final residual = 4.596e-07, No Iterations 3
ExecutionTime = 0.5 s  ClockTime = 1 s

Time = 12.7

--
smoothSolver:  Solving for Uy, Initial residual = 1.65134e-06, Final residual = 1.65134e-06, No Iterations 0
smoothSolver:  Solving for Uz, Initial residual = 0.0571035, Final residual = 4.97518e-06, No Iterations 8
DICPCG:  Solving for p, Initial residual = 1.47732e-06, Final residual = 7.18809e-07, No Iterations 1
time step continuity errors : sum local = 2.97079e-08, global = 4.03928e-09, cumulative = -1.1087e-06
DICPCG:  Solving for p, Initial residual = 8.42633e-07, Final residual = 8.42633e-07, No Iterations 0
time step continuity errors : sum local = 3.48255e-08, global = 4.25786e-09, cumulative = -1.10444e-06
Measured temperature: 249.982
Wall temperature: 238.535
Output signal: 0.0496717
DILUPBiCG:  Solving for T, Initial residual = 0.000980519, Final residual = 4.42712e-07, No Iterations 3
ExecutionTime = 0.51 s  ClockTime = 1 s

Time = 12.8

--
smoothSolver:  Solving for Uy, Initial residual = 1.80003e-06, Final residual = 1.80003e-06, No Iterations 0
smoothSolver:  Solving for Uz, Initial residual = 0.0473248, Final residual = 4.94461e-06, No Iterations 8
DICPCG:  Solving for p, Initial residual = 1.63594e-06, Final residual = 7.79956e-07, No Iterations 1
time step continuity errors : sum local = 3.22351e-08, global = 4.53001e-09, cumulative = -1.09991e-06
DICPCG:  Solving for p, Initial residual = 9.5678e-07, Final residual = 9.5678e-07, No Iterations 0
time step continuity errors : sum local = 3.95431e-08, global = 4.62456e-09, cumulative = -1.09528e-06
Measured temperature: 249.982
Wall temperature: 238.585
Output signal: 0.0471673
DILUPBiCG:  Solving for T, Initial residual = 0.000948784, Final residual = 4.25539e-07, No Iterations 3
ExecutionTime = 0.51 s  ClockTime = 1 s

Time = 12.9

--
smoothSolver:  Solving for Uy, Initial residual = 2.2649e-06, Final residual = 2.2649e-06, No Iterations 0
smoothSolver:  Solving for Uz, Initial residual = 0.0537784, Final residual = 5.06373e-06, No Iterations 8
DICPCG:  Solving for p, Initial residual = 1.95976e-06, Final residual = 8.66144e-07, No Iterations 1
time step continuity errors : sum local = 3.57972e-08, global = 4.4248e-09, cumulative = -1.09086e-06
DICPCG:  Solving for p, Initial residual = 1.09019e-06, Final residual = 6.38971e-07, No Iterations 1
time step continuity errors : sum local = 2.64083e-08, global = 4.4381e-09, cumulative = -1.08642e-06
Measured temperature: 249.983
Wall temperature: 238.632
Output signal: 0.0445887
DILUPBiCG:  Solving for T, Initial residual = 0.0009158, Final residual = 4.0743e-07, No Iterations 3
ExecutionTime = 0.51 s  ClockTime = 1 s

Time = 13

--
smoothSolver:  Solving for Uy, Initial residual = 2.71547e-06, Final residual = 2.71547e-06, No Iterations 0
smoothSolver:  Solving for Uz, Initial residual = 0.0684023, Final residual = 5.85026e-06, No Iterations 8
DICPCG:  Solving for p, Initial residual = 1.36782e-06, Final residual = 6.20097e-07, No Iterations 1
time step continuity errors : sum local = 2.56282e-08, global = 5.01596e-09, cumulative = -1.08141e-06
DICPCG:  Solving for p, Initial residual = 8.38809e-07, Final residual = 8.38809e-07, No Iterations 0
time step continuity errors : sum local = 3.46675e-08, global = 5.33272e-09, cumulative = -1.07607e-06
Measured temperature: 249.983
Wall temperature: 238.677
Output signal: 0.0418644
DILUPBiCG:  Solving for T, Initial residual = 0.00088106, Final residual = 3.87526e-07, No Iterations 3
ExecutionTime = 0.52 s  ClockTime = 1 s

Time = 13.1

--
smoothSolver:  Solving for Uy, Initial residual = 2.34371e-06, Final residual = 2.34371e-06, No Iterations 0
smoothSolver:  Solving for Uz, Initial residual = 0.0540825, Final residual = 5.22702e-06, No Iterations 8
DICPCG:  Solving for p, Initial residual = 1.74745e-06, Final residual = 8.68533e-07, No Iterations 1
time step continuity errors : sum local = 3.5896e-08, global = 5.6227e-09, cumulative = -1.07045e-06
DICPCG:  Solving for p, Initial residual = 9.97376e-07, Final residual = 9.97376e-07, No Iterations 0
time step continuity errors : sum local = 4.1221e-08, global = 5.72989e-09, cumulative = -1.06472e-06
Measured temperature: 249.984
Wall temperature: 238.718
Output signal: 0.0391485
DILUPBiCG:  Solving for T, Initial residual = 0.000845541, Final residual = 3.67529e-07, No Iterations 3
ExecutionTime = 0.52 s  ClockTime = 1 s

Time = 13.2

--
smoothSolver:  Solving for Uy, Initial residual = 1.70471e-06, Final residual = 1.70471e-06, No Iterations 0
smoothSolver:  Solving for Uz, Initial residual = 0.0482303, Final residual = 5.80958e-06, No Iterations 8
DICPCG:  Solving for p, Initial residual = 1.51471e-06, Final residual = 8.7962e-07, No Iterations 1
time step continuity errors : sum local = 3.63542e-08, global = 5.39598e-09, cumulative = -1.05932e-06
DICPCG:  Solving for p, Initial residual = 9.21953e-07, Final residual = 9.21953e-07, No Iterations 0
time step continuity errors : sum local = 3.81038e-08, global = 5.20782e-09, cumulative = -1.05412e-06
Measured temperature: 249.984
Wall temperature: 238.758
Output signal: 0.0363947
DILUPBiCG:  Solving for T, Initial residual = 0.000809187, Final residual = 3.46255e-07, No Iterations 3
ExecutionTime = 0.52 s  ClockTime = 1 s

Time = 13.3

--
smoothSolver:  Solving for Uy, Initial residual = 1.8929e-06, Final residual = 1.8929e-06, No Iterations 0
smoothSolver:  Solving for Uz, Initial residual = 0.0555609, Final residual = 5.64375e-06, No Iterations 8
DICPCG:  Solving for p, Initial residual = 1.56547e-06, Final residual = 8.3239e-07, No Iterations 1
time step continuity errors : sum local = 3.44022e-08, global = 4.70448e-09, cumulative = -1.04941e-06
DICPCG:  Solving for p, Initial residual = 9.52706e-07, Final residual = 9.52706e-07, No Iterations 0
time step continuity errors : sum local = 3.93748e-08, global = 4.42739e-09, cumulative = -1.04498e-06
Measured temperature: 249.985
Wall temperature: 238.794
Output signal: 0.033534
DILUPBiCG:  Solving for T, Initial residual = 0.00077155, Final residual = 3.24578e-07, No Iterations 3
ExecutionTime = 0.52 s  ClockTime = 1 s

Time = 13.4

--
smoothSolver:  Solving for Uy, Initial residual = 1.84825e-06, Final residual = 1.84825e-06, No Iterations 0
smoothSolver:  Solving for Uz, Initial residual = 0.0528205, Final residual = 4.70404e-06, No Iterations 8
DICPCG:  Solving for p, Initial residual = 1.71664e-06, Final residual = 8.9401e-07, No Iterations 1
time step continuity errors : sum local = 3.69489e-08, global = 4.10118e-09, cumulative = -1.04088e-06
DICPCG:  Solving for p, Initial residual = 1.01455e-06, Final residual = 7.07942e-07, No Iterations 1
time step continuity errors : sum local = 2.92588e-08, global = 4.10814e-09, cumulative = -1.03677e-06
Measured temperature: 249.985
Wall temperature: 238.828
Output signal: 0.0305936
DILUPBiCG:  Solving for T, Initial residual = 0.000732666, Final residual = 3.02066e-07, No Iterations 3
ExecutionTime = 0.52 s  ClockTime = 1 s

Time = 13.5

--
smoothSolver:  Solving for Uy, Initial residual = 2.34725e-06, Final residual = 2.34725e-06, No Iterations 0
smoothSolver:  Solving for Uz, Initial residual = 0.0767516, Final residual = 6.12149e-06, No Iterations 8
DICPCG:  Solving for p, Initial residual = 1.15545e-06, Final residual = 6.99559e-07, No Iterations 1
time step continuity errors : sum local = 2.89124e-08, global = 4.5078e-09, cumulative = -1.03227e-06
DICPCG:  Solving for p, Initial residual = 8.69701e-07, Final residual = 8.69701e-07, No Iterations 0
time step continuity errors : sum local = 3.59442e-08, global = 4.77786e-09, cumulative = -1.02749e-06
Measured temperature: 249.986
Wall temperature: 238.858
Output signal: 0.0276419
DILUPBiCG:  Solving for T, Initial residual = 0.000693011, Final residual = 2.78025e-07, No Iterations 3
ExecutionTime = 0.52 s  ClockTime = 1 s

Time = 13.6

--
smoothSolver:  Solving for Uy, Initial residual = 1.98423e-06, Final residual = 1.98423e-06, No Iterations 0
smoothSolver:  Solving for Uz, Initial residual = 0.057234, Final residual = 4.57796e-06, No Iterations 8
DICPCG:  Solving for p, Initial residual = 1.70425e-06, Final residual = 7.28908e-07, No Iterations 2
time step continuity errors : sum local = 3.01253e-08, global = 5.06827e-09, cumulative = -1.02242e-06
DICPCG:  Solving for p, Initial residual = 1.37935e-06, Final residual = 6.2631e-07, No Iterations 1
time step continuity errors : sum local = 2.5885e-08, global = 4.34477e-09, cumulative = -1.01808e-06
Measured temperature: 249.987
Wall temperature: 238.886
Output signal: 0.0247899
DILUPBiCG:  Solving for T, Initial residual = 0.000653673, Final residual = 2.54669e-07, No Iterations 3
ExecutionTime = 0.53 s  ClockTime = 1 s

Time = 13.7

--
smoothSolver:  Solving for Uy, Initial residual = 1.88636e-06, Final residual = 1.88636e-06, No Iterations 0
smoothSolver:  Solving for Uz, Initial residual = 0.0732741, Final residual = 5.17801e-06, No Iterations 8
DICPCG:  Solving for p, Initial residual = 1.37654e-06, Final residual = 7.66476e-07, No Iterations 1
time step continuity errors : sum local = 3.1678e-08, global = 3.8454e-09, cumulative = -1.01423e-06
DICPCG:  Solving for p, Initial residual = 1.11248e-06, Final residual = 6.77897e-07, No Iterations 1
time step continuity errors : sum local = 2.80171e-08, global = 3.91175e-09, cumulative = -1.01032e-06
Measured temperature: 249.987
Wall temperature: 238.911
Output signal: 0.0219747
DILUPBiCG:  Solving for T, Initial residual = 0.00061421, Final residual = 2.31073e-07, No Iterations 3
ExecutionTime = 0.53 s  ClockTime = 1 s

Time = 13.8

--
smoothSolver:  Solving for Uy, Initial residual = 7.283e-07, Final residual = 7.283e-07, No Iterations 0
smoothSolver:  Solving for Uz, Initial residual = 0.0673071, Final residual = 4.75805e-06, No Iterations 8
DICPCG:  Solving for p, Initial residual = 8.14752e-07, Final residual = 8.14752e-07, No Iterations 0
time step continuity errors : sum local = 3.36732e-08, global = 4.01119e-09, cumulative = -1.00631e-06
DICPCG:  Solving for p, Initial residual = 8.97943e-07, Final residual = 8.97943e-07, No Iterations 0
time step continuity errors : sum local = 3.71115e-08, global = 4.21589e-09, cumulative = -1.00209e-06
Measured temperature: 249.988
Wall temperature: 238.933
Output signal: 0.0191276
DILUPBiCG:  Solving for T, Initial residual = 0.000574081, Final residual = 2.07343e-07, No Iterations 3
ExecutionTime = 0.53 s  ClockTime = 1 s

Time = 13.9

--
smoothSolver:  Solving for Uy, Initial residual = 6.41764e-07, Final residual = 6.41764e-07, No Iterations 0
smoothSolver:  Solving for Uz, Initial residual = 0.0312384, Final residual = 9.03008e-06, No Iterations 7
DICPCG:  Solving for p, Initial residual = 1.1413e-06, Final residual = 5.84615e-07, No Iterations 1
time step continuity errors : sum local = 2.41618e-08, global = 5.36685e-09, cumulative = -9.96725e-07
DICPCG:  Solving for p, Initial residual = 5.89747e-07, Final residual = 5.89747e-07, No Iterations 0
time step continuity errors : sum local = 2.43739e-08, global = 5.83878e-09, cumulative = -9.90886e-07
Measured temperature: 249.988
Wall temperature: 238.952
Output signal: 0.0163652
DILUPBiCG:  Solving for T, Initial residual = 0.000534007, Final residual = 1.83122e-07, No Iterations 3
ExecutionTime = 0.53 s  ClockTime = 1 s

Time = 14

--
smoothSolver:  Solving for Uy, Initial residual = 1.52494e-06, Final residual = 1.52494e-06, No Iterations 0
smoothSolver:  Solving for Uz, Initial residual = 0.0537879, Final residual = 5.13164e-06, No Iterations 8
DICPCG:  Solving for p, Initial residual = 1.25708e-06, Final residual = 6.00424e-07, No Iterations 1
time step continuity errors : sum local = 2.48152e-08, global = 5.56308e-09, cumulative = -9.85323e-07
DICPCG:  Solving for p, Initial residual = 7.55926e-07, Final residual = 7.55926e-07, No Iterations 0
time step continuity errors : sum local = 3.1242e-08, global = 5.04923e-09, cumulative = -9.80274e-07
Measured temperature: 249.989
Wall temperature: 238.968
Output signal: 0.013827
DILUPBiCG:  Solving for T, Initial residual = 0.000495236, Final residual = 1.59668e-07, No Iterations 3
ExecutionTime = 0.54 s  ClockTime = 1 s

End

